Circuit: * D:\Solar Farm\ELoad\ELoad\EloadSim.asc

Direct Newton iteration failed to find .op point.  (Use ".option noopiter" to skip.)
Starting Gmin stepping
Gmin = 10
Gmin = 1.07374
Gmin = 0.115292
Gmin = 0.0123794
Gmin = 0.00132923
Gmin = 0.000142725
Gmin = 1.5325e-005
Gmin = 1.6455e-006
vernier = 0.5
vernier = 0.25
Gmin = 5.07481e-007
vernier = 0.125
vernier = 0.0625
vernier = 0.03125
vernier = 0.015625
Gmin = 4.95801e-007
vernier = 0.0208333
vernier = 0.0104167
Gmin = 4.8245e-007
vernier = 0.0138889
vernier = 0.00694444
Gmin = 4.74156e-007
vernier = 0.00925925
vernier = 0.00462963
Gmin = 4.67623e-007
vernier = 0.00617283
vernier = 0.00823044
vernier = 0.00411522
Gmin = 4.62305e-007
vernier = 0.00548696
Gmin = 4.56636e-007
vernier = 0.00731595
vernier = 0.00365797
vernier = 0.0048773
Gmin = 4.52895e-007
vernier = 0.00243865
vernier = 0.00325153
Gmin = 4.50418e-007
vernier = 0.00433537
vernier = 0.00216769
Gmin = 4.47621e-007
vernier = 0.00289025
vernier = 0.00385366
Gmin = 4.44346e-007
vernier = 0.00513821
vernier = 0.00256911
Gmin = 4.41502e-007
vernier = 0.00342548
vernier = 0.0045673
vernier = 0.00228365
Gmin = 4.38708e-007
vernier = 0.00304487
Gmin = 4.35714e-007
vernier = 0.00405982
vernier = 0.00202991
vernier = 0.00270655
Gmin = 4.33729e-007
vernier = 0.00360873
vernier = 0.00481163
Gmin = 4.29997e-007
vernier = 0.00240582
vernier = 0.00320776
Gmin = 4.27847e-007
vernier = 0.00427701
vernier = 0.0021385
vernier = 0.00285134
Gmin = 4.25719e-007
vernier = 0.00380178
vernier = 0.00190089
Gmin = 4.236e-007
vernier = 0.00253452
vernier = 0.00337936
Gmin = 4.20881e-007
vernier = 0.00450581
vernier = 0.00225291
Gmin = 4.18518e-007
vernier = 0.00300387
vernier = 0.00400516
vernier = 0.00200258
Gmin = 4.16194e-007
vernier = 0.00267011
Gmin = 4.13702e-007
vernier = 0.00356014
vernier = 0.00474686
vernier = 0.00237343
Gmin = 4.11012e-007
vernier = 0.00316457
vernier = 0.00421943
Gmin = 4.07909e-007
vernier = 0.00210971
vernier = 0.00281295
Gmin = 4.0612e-007
vernier = 0.0037506
vernier = 0.0018753
vernier = 0.0025004
Gmin = 4.04348e-007
vernier = 0.00333386
Gmin = 4.01411e-007
vernier = 0.00444515
vernier = 0.00222258
vernier = 0.00296343
Gmin = 3.99372e-007
vernier = 0.00395124
vernier = 0.00197562
Gmin = 3.97405e-007
vernier = 0.00263416
vernier = 0.00351222
vernier = 0.00175611
Gmin = 3.95469e-007
vernier = 0.00234148
Gmin = 3.93392e-007
vernier = 0.00312197
vernier = 0.00416262
vernier = 0.00208131
Gmin = 3.91147e-007
vernier = 0.00277508
vernier = 0.00370011
Gmin = 3.88556e-007
vernier = 0.00185005
vernier = 0.00246674
Gmin = 3.87062e-007
vernier = 0.00328898
vernier = 0.00438531
vernier = 0.00219265
Gmin = 3.84683e-007
vernier = 0.00292354
Gmin = 3.82232e-007
vernier = 0.00389805
vernier = 0.00194903
vernier = 0.0025987
Gmin = 3.80529e-007
vernier = 0.00346493
vernier = 0.00173247
Gmin = 3.78885e-007
vernier = 0.00230995
vernier = 0.00307994
Gmin = 3.76541e-007
vernier = 0.00410658
vernier = 0.00205329
Gmin = 3.7471e-007
vernier = 0.00273772
vernier = 0.00365029
vernier = 0.00182515
Gmin = 3.72834e-007
vernier = 0.00243353
vernier = 0.0032447
Gmin = 3.70667e-007
vernier = 0.00162235
vernier = 0.00216314
Gmin = 3.69417e-007
vernier = 0.00288418
vernier = 0.00384557
Gmin = 3.6672e-007
vernier = 0.00512743
vernier = 0.00256371
Gmin = 3.64378e-007
vernier = 0.00341828
vernier = 0.00170914
vernier = 0.00227886
Gmin = 3.62954e-007
vernier = 0.00303847
vernier = 0.00151924
Gmin = 3.61578e-007
vernier = 0.00202565
vernier = 0.00270086
Gmin = 3.59616e-007
vernier = 0.00360115
vernier = 0.00480153
Gmin = 3.56528e-007
vernier = 0.00240077
vernier = 0.00320102
vernier = 0.00160051
Gmin = 3.55602e-007
vernier = 0.00213401
vernier = 0.00284535
Gmin = 3.53789e-007
vernier = 0.0037938
vernier = 0.0018969
Gmin = 3.52032e-007
vernier = 0.0025292
vernier = 0.00337227
vernier = 0.00168613
Gmin = 3.50367e-007
vernier = 0.00224818
Gmin = 3.48649e-007
vernier = 0.00299757
vernier = 0.00149878
vernier = 0.00199838
Gmin = 3.47454e-007
vernier = 0.0026645
Gmin = 3.45377e-007
vernier = 0.00355267
vernier = 0.00177634
vernier = 0.00236845
Gmin = 3.44e-007
vernier = 0.00315793
vernier = 0.00157896
Gmin = 3.42713e-007
vernier = 0.00210528
vernier = 0.00280705
vernier = 0.00140352
Gmin = 3.41154e-007
vernier = 0.00187136
Gmin = 3.3976e-007
vernier = 0.00249515
vernier = 0.00332687
vernier = 0.00166343
Gmin = 3.38192e-007
vernier = 0.00221791
Gmin = 3.36509e-007
vernier = 0.00295721
vernier = 0.00147861
vernier = 0.00197147
Gmin = 3.35392e-007
vernier = 0.00262863
vernier = 0.00350484
Gmin = 3.33287e-007
vernier = 0.00175242
vernier = 0.00233656
Gmin = 3.32073e-007
vernier = 0.00311541
vernier = 0.00155771
vernier = 0.00207694
Gmin = 3.30868e-007
vernier = 0.00276926
vernier = 0.00138463
Gmin = 3.29668e-007
vernier = 0.00184617
vernier = 0.00246156
Gmin = 3.28125e-007
vernier = 0.00328208
vernier = 0.00164104
Gmin = 3.26782e-007
vernier = 0.00218805
vernier = 0.0029174
vernier = 0.0014587
Gmin = 3.25459e-007
vernier = 0.00194493
Gmin = 3.24039e-007
vernier = 0.00259324
vernier = 0.00345766
vernier = 0.00172883
Gmin = 3.22502e-007
vernier = 0.0023051
vernier = 0.00307347
Gmin = 3.20726e-007
vernier = 0.00153674
vernier = 0.00204898
Gmin = 3.19701e-007
vernier = 0.00273197
vernier = 0.00136599
vernier = 0.00182132
Gmin = 3.18684e-007
vernier = 0.00242842
Gmin = 3.16996e-007
vernier = 0.00323789
vernier = 0.00161895
vernier = 0.00215859
Gmin = 3.15823e-007
vernier = 0.00287813
vernier = 0.00143906
Gmin = 3.14689e-007
vernier = 0.00191875
vernier = 0.00255833
vernier = 0.00127917
Gmin = 3.13571e-007
vernier = 0.00170555
Gmin = 3.12371e-007
vernier = 0.00227407
vernier = 0.0030321
vernier = 0.00151605
Gmin = 3.11071e-007
vernier = 0.0020214
vernier = 0.00269519
Gmin = 3.09569e-007
vernier = 0.0013476
vernier = 0.0017968
Gmin = 3.08701e-007
vernier = 0.00239573
vernier = 0.0031943
vernier = 0.00159715
Gmin = 3.07318e-007
vernier = 0.00212953
Gmin = 3.0589e-007
vernier = 0.00283938
vernier = 0.00141969
vernier = 0.00189292
Gmin = 3.04897e-007
vernier = 0.00252389
vernier = 0.00126195
Gmin = 3.03936e-007
vernier = 0.00168259
vernier = 0.00224346
Gmin = 3.02566e-007
vernier = 0.00299128
vernier = 0.00149564
Gmin = 3.01493e-007
vernier = 0.00199418
vernier = 0.00265891
vernier = 0.00132946
Gmin = 3.00393e-007
vernier = 0.00177261
vernier = 0.00236347
Gmin = 2.9912e-007
vernier = 0.00118174
vernier = 0.00157565
Gmin = 2.98326e-007
vernier = 0.00210087
vernier = 0.00280115
Gmin = 2.96829e-007
vernier = 0.00140058
vernier = 0.00186743
Gmin = 2.95964e-007
vernier = 0.00248991
vernier = 0.00124496
vernier = 0.00165994
Gmin = 2.95106e-007
vernier = 0.00221325
Gmin = 2.93681e-007
vernier = 0.00295101
vernier = 0.0014755
vernier = 0.00196734
Gmin = 2.9269e-007
vernier = 0.00262311
vernier = 0.00131156
Gmin = 2.91732e-007
vernier = 0.00174874
vernier = 0.00233166
vernier = 0.00116583
Gmin = 2.90787e-007
vernier = 0.00155444
Gmin = 2.89772e-007
vernier = 0.00207258
vernier = 0.00276344
vernier = 0.00138172
Gmin = 2.88674e-007
vernier = 0.00184229
vernier = 0.00245639
Gmin = 2.87403e-007
vernier = 0.0012282
vernier = 0.00163759
Gmin = 2.86668e-007
vernier = 0.00218346
vernier = 0.00291128
Gmin = 2.85082e-007
vernier = 0.0038817
Gmin = 2.82604e-007
vernier = 0.0051756
vernier = 0.0069008
Gmin = 2.78493e-007
vernier = 0.00920106
vernier = 0.0122681
Gmin = 2.72064e-007
vernier = 0.0163574
Gmin = 2.62251e-007
vernier = 0.0218099
vernier = 0.0290799
Gmin = 2.46583e-007
vernier = 0.0387732
vernier = 0.0516975
Gmin = 2.23553e-007
vernier = 0.06893
Gmin = 1.91669e-007
vernier = 0.0919067
vernier = 0.122542
Gmin = 1.4823e-007
vernier = 0.16339
vernier = 0.217853
Gmin = 9.87055e-008
vernier = 0.29047
Gmin = 5.2426e-008
vernier = 0.387294
vernier = 0.193647
vernier = 0.0968234
vernier = 0.0484117
vernier = 0.0242058
Gmin = 4.66583e-008
vernier = 0.0322745
vernier = 0.0161372
vernier = 0.0215163
Gmin = 4.49683e-008
vernier = 0.0286884
vernier = 0.0143442
Gmin = 4.33879e-008
vernier = 0.0191256
vernier = 0.0255008
vernier = 0.0127504
Gmin = 4.18796e-008
vernier = 0.0170005
Gmin = 4.03109e-008
vernier = 0.0226673
vernier = 0.0113337
vernier = 0.0151116
Gmin = 3.92975e-008
vernier = 0.0201487
vernier = 0.026865
Gmin = 3.74501e-008
vernier = 0.03582
Gmin = 3.46384e-008
vernier = 0.0477599
vernier = 0.0636799
vernier = 0.03184
vernier = 0.01592
Gmin = 3.19711e-008
vernier = 0.00795999
vernier = 0.00397999
vernier = 0.00530666
Gmin = 3.16863e-008
vernier = 0.00707554
vernier = 0.00943405
Gmin = 3.11541e-008
vernier = 0.0125787
Gmin = 3.03097e-008
vernier = 0.0167716
vernier = 0.00838582
vernier = 0.0111811
Gmin = 2.97335e-008
vernier = 0.0149081
vernier = 0.00745406
Gmin = 2.91852e-008
vernier = 0.00993874
vernier = 0.0132517
Gmin = 2.8417e-008
vernier = 0.0176689
vernier = 0.00883443
Gmin = 2.78278e-008
vernier = 0.0117792
vernier = 0.0157057
vernier = 0.00785283
Gmin = 2.72341e-008
vernier = 0.0104704
vernier = 0.0139606
Gmin = 2.65603e-008
vernier = 0.00698029
vernier = 0.00930705
Gmin = 2.61772e-008
vernier = 0.0124094
vernier = 0.0165459
vernier = 0.00827293
Gmin = 2.5576e-008
vernier = 0.0110306
Gmin = 2.4967e-008
vernier = 0.0147074
vernier = 0.00735371
vernier = 0.00980494
Gmin = 2.45502e-008
vernier = 0.0130733
vernier = 0.00653663
Gmin = 2.41527e-008
vernier = 0.0087155
vernier = 0.0116207
Gmin = 2.35942e-008
vernier = 0.0154942
vernier = 0.00774711
Gmin = 2.31646e-008
vernier = 0.0103295
vernier = 0.0137726
vernier = 0.00688631
Gmin = 2.27305e-008
vernier = 0.00918175
vernier = 0.0122423
Gmin = 2.22365e-008
vernier = 0.00612116
vernier = 0.00816155
Gmin = 2.1955e-008
vernier = 0.0108821
vernier = 0.00544103
vernier = 0.00725471
Gmin = 2.16782e-008
vernier = 0.00967294
Gmin = 2.12248e-008
vernier = 0.0128973
vernier = 0.00644863
vernier = 0.00859817
Gmin = 2.09138e-008
vernier = 0.0114642
vernier = 0.00573211
Gmin = 2.06165e-008
vernier = 0.00764281
vernier = 0.0101904
vernier = 0.00509521
Gmin = 2.03266e-008
vernier = 0.00679361
Gmin = 2.00185e-008
vernier = 0.00905814
vernier = 0.0120775
vernier = 0.00603876
Gmin = 1.96892e-008
vernier = 0.00805168
vernier = 0.0107356
Gmin = 1.93134e-008
vernier = 0.00536778
vernier = 0.00715704
Gmin = 1.90987e-008
vernier = 0.00954272
vernier = 0.00477136
vernier = 0.00636181
Gmin = 1.88874e-008
vernier = 0.00848241
Gmin = 1.85405e-008
vernier = 0.0113099
vernier = 0.00565494
vernier = 0.00753992
Gmin = 1.8302e-008
vernier = 0.0100532
vernier = 0.00502661
Gmin = 1.80736e-008
vernier = 0.00670215
vernier = 0.00893619
vernier = 0.0044681
Gmin = 1.78506e-008
vernier = 0.00595746
Gmin = 1.76131e-008
vernier = 0.00794328
vernier = 0.010591
vernier = 0.00529552
Gmin = 1.73587e-008
vernier = 0.00706069
vernier = 0.00941425
Gmin = 1.70678e-008
vernier = 0.00470712
vernier = 0.00627616
Gmin = 1.69013e-008
vernier = 0.00836822
vernier = 0.00418411
vernier = 0.00557881
Gmin = 1.67372e-008
vernier = 0.00743841
Gmin = 1.64673e-008
vernier = 0.00991788
vernier = 0.00495894
vernier = 0.00661192
Gmin = 1.62813e-008
vernier = 0.00881589
vernier = 0.00440794
Gmin = 1.6103e-008
vernier = 0.00587726
vernier = 0.00783634
vernier = 0.00391817
Gmin = 1.59286e-008
vernier = 0.00522423
Gmin = 1.57426e-008
vernier = 0.00696563
vernier = 0.00928751
vernier = 0.00464375
Gmin = 1.5543e-008
vernier = 0.00619167
vernier = 0.00825556
Gmin = 1.53143e-008
vernier = 0.00412778
vernier = 0.00550371
Gmin = 1.51832e-008
vernier = 0.00733827
vernier = 0.00978436
vernier = 0.00489218
Gmin = 1.49759e-008
vernier = 0.0065229
Gmin = 1.47639e-008
vernier = 0.0086972
vernier = 0.0043486
vernier = 0.00579813
Gmin = 1.46176e-008
vernier = 0.00773084
vernier = 0.00386542
Gmin = 1.44771e-008
vernier = 0.0051539
vernier = 0.00687186
Gmin = 1.42781e-008
vernier = 0.00916248
vernier = 0.00458124
Gmin = 1.41237e-008
vernier = 0.00610832
vernier = 0.00814442
vernier = 0.00407221
Gmin = 1.39666e-008
vernier = 0.00542961
vernier = 0.00723948
Gmin = 1.37862e-008
vernier = 0.00361974
vernier = 0.00482632
Gmin = 1.36826e-008
vernier = 0.00643509
vernier = 0.00858012
vernier = 0.00429006
Gmin = 1.35187e-008
vernier = 0.00572008
Gmin = 1.33507e-008
vernier = 0.00762677
vernier = 0.00381338
vernier = 0.00508451
Gmin = 1.32346e-008
vernier = 0.00677935
vernier = 0.00338967
Gmin = 1.3123e-008
vernier = 0.00451956
vernier = 0.00602608
Gmin = 1.29646e-008
vernier = 0.00803477
vernier = 0.00401739
Gmin = 1.28416e-008
vernier = 0.00535651
vernier = 0.00714202
vernier = 0.00357101
Gmin = 1.27162e-008
vernier = 0.00476134
vernier = 0.00634846
Gmin = 1.2572e-008
vernier = 0.00317423
vernier = 0.0042323
Gmin = 1.24892e-008
vernier = 0.00564307
vernier = 0.00752409
vernier = 0.00376205
Gmin = 1.23578e-008
vernier = 0.00501606
Gmin = 1.22231e-008
vernier = 0.00668808
vernier = 0.00334404
vernier = 0.00445872
Gmin = 1.21298e-008
vernier = 0.00594496
vernier = 0.00297248
Gmin = 1.204e-008
vernier = 0.0039633
vernier = 0.0052844
Gmin = 1.19125e-008
vernier = 0.00704587
vernier = 0.00352293
Gmin = 1.18133e-008
vernier = 0.00469724
vernier = 0.00626299
vernier = 0.0031315
Gmin = 1.17121e-008
vernier = 0.00417533
vernier = 0.0055671
Gmin = 1.15956e-008
vernier = 0.0074228
vernier = 0.0037114
Gmin = 1.14832e-008
vernier = 0.00494853
vernier = 0.00659804
vernier = 0.00329902
Gmin = 1.13772e-008
vernier = 0.00439869
Gmin = 1.12683e-008
vernier = 0.00586492
vernier = 0.00293246
vernier = 0.00390995
Gmin = 1.11929e-008
vernier = 0.00521326
Gmin = 1.10625e-008
vernier = 0.00695101
vernier = 0.00347551
vernier = 0.00463401
Gmin = 1.09763e-008
vernier = 0.00617867
vernier = 0.00308934
Gmin = 1.08961e-008
vernier = 0.00411911
vernier = 0.00549215
vernier = 0.00274608
Gmin = 1.08142e-008
vernier = 0.00366143
vernier = 0.00488191
Gmin = 1.07198e-008
vernier = 0.00650921
vernier = 0.00325461
Gmin = 1.06286e-008
vernier = 0.00433947
vernier = 0.00578596
vernier = 0.00289298
Gmin = 1.05426e-008
vernier = 0.00385731
Gmin = 1.0454e-008
vernier = 0.00514308
vernier = 0.00257154
vernier = 0.00342872
Gmin = 1.03926e-008
vernier = 0.00457162
Gmin = 1.02863e-008
vernier = 0.00609549
vernier = 0.00304775
vernier = 0.00406366
Gmin = 1.0216e-008
vernier = 0.00541821
vernier = 0.00270911
Gmin = 1.01506e-008
vernier = 0.00361214
vernier = 0.00481619
Gmin = 1.00472e-008
vernier = 0.00642158
vernier = 0.00321079
vernier = 0.00428105
Gmin = 9.97229e-009
vernier = 0.00570807
vernier = 0.00285403
Gmin = 9.8979e-009
vernier = 0.00380538
vernier = 0.00507384
vernier = 0.00253692
Gmin = 9.82756e-009
vernier = 0.00338256
Gmin = 9.75514e-009
vernier = 0.00451008
vernier = 0.00601343
vernier = 0.00300672
Gmin = 9.67394e-009
vernier = 0.00400895
Gmin = 9.58712e-009
vernier = 0.00534527
vernier = 0.00267264
vernier = 0.00356351
Gmin = 9.52966e-009
vernier = 0.00475135
vernier = 0.00237567
Gmin = 9.47606e-009
vernier = 0.00316757
vernier = 0.00422342
Gmin = 9.39144e-009
vernier = 0.00563122
vernier = 0.00281561
vernier = 0.00375415
Gmin = 9.32996e-009
vernier = 0.00500553
vernier = 0.00250276
Gmin = 9.2689e-009
vernier = 0.00333702
vernier = 0.00444936
vernier = 0.00222468
Gmin = 9.2111e-009
vernier = 0.00296624
Gmin = 9.15155e-009
vernier = 0.00395498
vernier = 0.00527331
vernier = 0.00263665
Gmin = 9.08472e-009
vernier = 0.00351554
Gmin = 9.01317e-009
vernier = 0.00468738
vernier = 0.00234369
vernier = 0.00312492
Gmin = 8.96578e-009
vernier = 0.00416656
vernier = 0.00555541
Gmin = 8.87677e-009
vernier = 0.00277771
vernier = 0.00370361
Gmin = 8.82557e-009
vernier = 0.00493814
vernier = 0.00246907
vernier = 0.00329209
Gmin = 8.77489e-009
vernier = 0.00438946
vernier = 0.00219473
Gmin = 8.7245e-009
vernier = 0.0029263
vernier = 0.00390174
Gmin = 8.65987e-009
vernier = 0.00520232
vernier = 0.00260116
Gmin = 8.60377e-009
vernier = 0.00346821
vernier = 0.00462428
vernier = 0.00231214
Gmin = 8.54864e-009
vernier = 0.00308285
Gmin = 8.48957e-009
vernier = 0.00411047
vernier = 0.00205523
vernier = 0.00274031
Gmin = 8.45041e-009
vernier = 0.00365375
vernier = 0.00487166
Gmin = 8.37679e-009
vernier = 0.00243583
vernier = 0.00324777
Gmin = 8.33441e-009
vernier = 0.00433036
vernier = 0.00216518
vernier = 0.00288691
Gmin = 8.29242e-009
vernier = 0.00384921
Gmin = 8.22292e-009
vernier = 0.00513228
vernier = 0.00256614
vernier = 0.00342152
Gmin = 8.17472e-009
vernier = 0.00456202
vernier = 0.00228101
Gmin = 8.12825e-009
vernier = 0.00304135
vernier = 0.00405513
vernier = 0.00202757
Gmin = 8.08256e-009
vernier = 0.00270342
Gmin = 8.03356e-009
vernier = 0.00360456
vernier = 0.00480608
vernier = 0.00240304
Gmin = 7.98067e-009
vernier = 0.00320405
vernier = 0.00427207
Gmin = 7.91967e-009
vernier = 0.00213603
vernier = 0.00284804
Gmin = 7.88451e-009
vernier = 0.00379739
vernier = 0.0018987
vernier = 0.00253159
Gmin = 7.84967e-009
vernier = 0.00337546
Gmin = 7.79194e-009
vernier = 0.00450061
vernier = 0.0022503
vernier = 0.0030004
Gmin = 7.75188e-009
vernier = 0.00400054
vernier = 0.00200027
Gmin = 7.71322e-009
vernier = 0.00266702
vernier = 0.00355603
Gmin = 7.65816e-009
vernier = 0.00474137
vernier = 0.00237069
Gmin = 7.61517e-009
vernier = 0.00316092
vernier = 0.00421455
vernier = 0.00210728
Gmin = 7.57119e-009
vernier = 0.0028097
vernier = 0.00374627
Gmin = 7.52041e-009
vernier = 0.00187313
vernier = 0.00249751
Gmin = 7.49113e-009
vernier = 0.00333001
vernier = 0.00444002
vernier = 0.00222001
Gmin = 7.44452e-009
vernier = 0.00296001
Gmin = 7.39649e-009
vernier = 0.00394668
vernier = 0.00197334
vernier = 0.00263112
Gmin = 7.36312e-009
vernier = 0.00350816
Gmin = 7.30526e-009
vernier = 0.00467754
vernier = 0.00233877
vernier = 0.00311836
Gmin = 7.26693e-009
vernier = 0.00415781
vernier = 0.00207891
Gmin = 7.23115e-009
vernier = 0.00277188
vernier = 0.00369583
vernier = 0.00184792
Gmin = 7.19451e-009
vernier = 0.00246389
vernier = 0.00328518
Gmin = 7.15217e-009
vernier = 0.00438024
vernier = 0.00219012
Gmin = 7.11119e-009
vernier = 0.00292016
vernier = 0.00389355
vernier = 0.00194677
Gmin = 7.07237e-009
vernier = 0.0025957
Gmin = 7.03234e-009
vernier = 0.00346093
vernier = 0.00173046
vernier = 0.00230729
Gmin = 7.00451e-009
vernier = 0.00307638
Gmin = 6.95621e-009
vernier = 0.00410184
vernier = 0.00205092
vernier = 0.00273456
Gmin = 6.9242e-009
vernier = 0.00364608
vernier = 0.00182304
Gmin = 6.89429e-009
vernier = 0.00243072
vernier = 0.00324096
Gmin = 6.84699e-009
vernier = 0.00432127
vernier = 0.00216064
vernier = 0.00288085
Gmin = 6.81257e-009
vernier = 0.00384113
vernier = 0.00192057
Gmin = 6.77832e-009
vernier = 0.00256075
vernier = 0.00341434
vernier = 0.00170717
Gmin = 6.74586e-009
vernier = 0.00227622
Gmin = 6.71237e-009
vernier = 0.00303496
vernier = 0.00404662
vernier = 0.00202331
Gmin = 6.67471e-009
vernier = 0.00269774
Gmin = 6.63433e-009
vernier = 0.00359699
vernier = 0.0017985
vernier = 0.00239799
Gmin = 6.60755e-009
vernier = 0.00319732
vernier = 0.00159866
Gmin = 6.58251e-009
vernier = 0.00213155
vernier = 0.00284207
Gmin = 6.54289e-009
vernier = 0.00378942
vernier = 0.00189471
vernier = 0.00252628
Gmin = 6.51404e-009
vernier = 0.00336837
vernier = 0.00168419
Gmin = 6.48531e-009
vernier = 0.00224558
vernier = 0.00299411
Gmin = 6.44841e-009
vernier = 0.00399214
vernier = 0.00199607
Gmin = 6.41632e-009
vernier = 0.00266143
vernier = 0.00354857
vernier = 0.00177428
Gmin = 6.38475e-009
vernier = 0.00236571
Gmin = 6.35086e-009
vernier = 0.00315428
vernier = 0.00157714
vernier = 0.00210285
Gmin = 6.32837e-009
vernier = 0.0028038
vernier = 0.0037384
Gmin = 6.28602e-009
vernier = 0.0018692
vernier = 0.00249227
Gmin = 6.26159e-009
vernier = 0.00332302
vernier = 0.00166151
vernier = 0.00221535
Gmin = 6.23737e-009
vernier = 0.0029538
Gmin = 6.19721e-009
vernier = 0.0039384
vernier = 0.0019692
vernier = 0.0026256
Gmin = 6.16932e-009
vernier = 0.00350079
vernier = 0.0017504
Gmin = 6.14239e-009
vernier = 0.00233386
vernier = 0.00311182
vernier = 0.00155591
Gmin = 6.11587e-009
vernier = 0.00207454
Gmin = 6.0874e-009
vernier = 0.00276606
vernier = 0.00368808
vernier = 0.00184404
Gmin = 6.05661e-009
vernier = 0.00245872
vernier = 0.00327829
Gmin = 6.02105e-009
vernier = 0.00163914
vernier = 0.00218552
Gmin = 6.00053e-009
vernier = 0.00291403
vernier = 0.00145702
vernier = 0.00194269
Gmin = 5.98017e-009
vernier = 0.00259025
Gmin = 5.94639e-009
vernier = 0.00345366
vernier = 0.00172683
vernier = 0.00230244
Gmin = 5.92291e-009
vernier = 0.00306992
vernier = 0.00153496
Gmin = 5.90023e-009
vernier = 0.00204661
vernier = 0.00272882
Gmin = 5.86788e-009
vernier = 0.00363842
vernier = 0.00181921
Gmin = 5.84259e-009
vernier = 0.00242562
vernier = 0.00323415
vernier = 0.00161708
Gmin = 5.81667e-009
vernier = 0.0021561
vernier = 0.0028748
Gmin = 5.78671e-009
vernier = 0.0014374
vernier = 0.00191653
Gmin = 5.76941e-009
vernier = 0.00255538
vernier = 0.00340717
vernier = 0.00170358
Gmin = 5.74184e-009
vernier = 0.00227145
Gmin = 5.71339e-009
vernier = 0.00302859
vernier = 0.0015143
vernier = 0.00201906
Gmin = 5.6936e-009
vernier = 0.00269208
vernier = 0.00134604
Gmin = 5.67448e-009
vernier = 0.00179472
vernier = 0.00239296
Gmin = 5.64718e-009
vernier = 0.00319061
vernier = 0.00159531
Gmin = 5.62583e-009
vernier = 0.00212707
vernier = 0.0028361
vernier = 0.00141805
Gmin = 5.60394e-009
vernier = 0.00189073
vernier = 0.00252098
Gmin = 5.57862e-009
vernier = 0.0033613
vernier = 0.00168065
Gmin = 5.55407e-009
vernier = 0.00224087
vernier = 0.00298782
vernier = 0.00149391
Gmin = 5.53078e-009
vernier = 0.00199188
Gmin = 5.50674e-009
vernier = 0.00265584
vernier = 0.00132792
vernier = 0.00177056
Gmin = 5.49001e-009
vernier = 0.00236074
Gmin = 5.46094e-009
vernier = 0.00314766
vernier = 0.00157383
vernier = 0.00209844
Gmin = 5.44164e-009
vernier = 0.00279792
vernier = 0.00139896
Gmin = 5.42359e-009
vernier = 0.00186528
vernier = 0.00248704
Gmin = 5.39501e-009
vernier = 0.00331605
vernier = 0.00165802
vernier = 0.0022107
Gmin = 5.37419e-009
vernier = 0.0029476
vernier = 0.0014738
Gmin = 5.35344e-009
vernier = 0.00196506
vernier = 0.00262008
vernier = 0.00131004
Gmin = 5.33376e-009
vernier = 0.00174672
Gmin = 5.31342e-009
vernier = 0.00232896
vernier = 0.00310528
vernier = 0.00155264
Gmin = 5.29053e-009
vernier = 0.00207019
Gmin = 5.26595e-009
vernier = 0.00276025
vernier = 0.00138013
vernier = 0.00184017
Gmin = 5.24963e-009
vernier = 0.00245355
vernier = 0.00327141
Gmin = 5.21887e-009
vernier = 0.0016357
vernier = 0.00218094
Gmin = 5.20112e-009
vernier = 0.00290791
vernier = 0.00145396
vernier = 0.00193861
Gmin = 5.18351e-009
vernier = 0.00258481
vernier = 0.00129241
Gmin = 5.16595e-009
vernier = 0.00172321
vernier = 0.00229761
Gmin = 5.14338e-009
vernier = 0.00306348
vernier = 0.00153174
Gmin = 5.12373e-009
vernier = 0.00204232
vernier = 0.00272309
vernier = 0.00136155
Gmin = 5.10437e-009
vernier = 0.00181539
Gmin = 5.08357e-009
vernier = 0.00242052
vernier = 0.00121026
vernier = 0.00161368
Gmin = 5.06974e-009
vernier = 0.00215158
vernier = 0.00286877
Gmin = 5.04368e-009
vernier = 0.00143438
vernier = 0.00191251
Gmin = 5.02864e-009
vernier = 0.00255001
vernier = 0.00127501
vernier = 0.00170001
Gmin = 5.0137e-009
vernier = 0.00226668
Gmin = 4.98891e-009
vernier = 0.00302224
vernier = 0.00151112
vernier = 0.00201482
Gmin = 4.97167e-009
vernier = 0.00268643
vernier = 0.00134322
Gmin = 4.955e-009
vernier = 0.00179095
vernier = 0.00238794
vernier = 0.00119397
Gmin = 4.93858e-009
vernier = 0.00159196
Gmin = 4.92093e-009
vernier = 0.00212261
vernier = 0.00283015
vernier = 0.00141507
Gmin = 4.90182e-009
vernier = 0.00188676
vernier = 0.00251568
Gmin = 4.87972e-009
vernier = 0.00125784
vernier = 0.00167712
Gmin = 4.86695e-009
vernier = 0.00223616
vernier = 0.00298155
vernier = 0.00149077
Gmin = 4.84659e-009
vernier = 0.0019877
Gmin = 4.82557e-009
vernier = 0.00265026
vernier = 0.00132513
vernier = 0.00176684
Gmin = 4.81094e-009
vernier = 0.00235579
vernier = 0.00117789
Gmin = 4.79679e-009
vernier = 0.00157053
vernier = 0.00209403
Gmin = 4.77659e-009
vernier = 0.00279204
vernier = 0.00139602
Gmin = 4.76079e-009
vernier = 0.00186136
vernier = 0.00248182
vernier = 0.00124091
Gmin = 4.74457e-009
vernier = 0.00165454
vernier = 0.00220606
Gmin = 4.72581e-009
vernier = 0.00294141
vernier = 0.0014707
Gmin = 4.7076e-009
vernier = 0.00196094
vernier = 0.00261458
vernier = 0.00130729
Gmin = 4.69033e-009
vernier = 0.00174306
Gmin = 4.67248e-009
vernier = 0.00232407
vernier = 0.00116204
vernier = 0.00154938
Gmin = 4.66006e-009
vernier = 0.00206584
Gmin = 4.63845e-009
vernier = 0.00275446
vernier = 0.00137723
vernier = 0.0018363
Gmin = 4.6241e-009
vernier = 0.0024484
vernier = 0.0012242
Gmin = 4.61068e-009
vernier = 0.00163227
vernier = 0.00217636
vernier = 0.00108818
Gmin = 4.59691e-009
vernier = 0.00145091
vernier = 0.00193454
Gmin = 4.58096e-009
vernier = 0.00257939
vernier = 0.00128969
Gmin = 4.56548e-009
vernier = 0.00171959
vernier = 0.00229279
vernier = 0.00114639
Gmin = 4.55079e-009
vernier = 0.00152852
Gmin = 4.5356e-009
vernier = 0.00203803
vernier = 0.00271737
vernier = 0.00135869
Gmin = 4.51849e-009
vernier = 0.00181158
Gmin = 4.50012e-009
vernier = 0.00241544
vernier = 0.00120772
vernier = 0.00161029
Gmin = 4.48791e-009
vernier = 0.00214706
vernier = 0.00107353
Gmin = 4.47648e-009
vernier = 0.00143137
vernier = 0.0019085
Gmin = 4.45837e-009
vernier = 0.00254466
vernier = 0.00127233
vernier = 0.00169644
Gmin = 4.44515e-009
vernier = 0.00226192
vernier = 0.00113096
Gmin = 4.43198e-009
vernier = 0.00150795
vernier = 0.00201059
Gmin = 4.41503e-009
vernier = 0.00268079
vernier = 0.0013404
Gmin = 4.40026e-009
vernier = 0.00178719
vernier = 0.00238292
vernier = 0.00119146
Gmin = 4.38571e-009
vernier = 0.00158862
Gmin = 4.37006e-009
vernier = 0.00211815
vernier = 0.00105908
vernier = 0.0014121
Gmin = 4.35966e-009
vernier = 0.0018828
vernier = 0.0025104
Gmin = 4.34005e-009
vernier = 0.0012552
vernier = 0.0016736
Gmin = 4.32871e-009
vernier = 0.00223147
vernier = 0.00111573
vernier = 0.00148765
Gmin = 4.31746e-009
vernier = 0.00198353
Gmin = 4.29877e-009
vernier = 0.0026447
vernier = 0.00132235
vernier = 0.00176313
Gmin = 4.28577e-009
vernier = 0.00235084
vernier = 0.00117542
Gmin = 4.27319e-009
vernier = 0.00156723
vernier = 0.00208964
vernier = 0.00104482
Gmin = 4.2608e-009
vernier = 0.00139309
Gmin = 4.24747e-009
vernier = 0.00185746
vernier = 0.00247661
vernier = 0.0012383
Gmin = 4.23303e-009
vernier = 0.00165107
vernier = 0.00220143
Gmin = 4.21632e-009
vernier = 0.00110071
vernier = 0.00146762
Gmin = 4.20666e-009
vernier = 0.00195682
vernier = 0.0026091
vernier = 0.00130455
Gmin = 4.19126e-009
vernier = 0.0017394
Gmin = 4.17535e-009
vernier = 0.0023192
vernier = 0.0011596
vernier = 0.00154613
Gmin = 4.16427e-009
vernier = 0.00206151
vernier = 0.00103075
Gmin = 4.15355e-009
vernier = 0.00137434
vernier = 0.00183245
Gmin = 4.13824e-009
vernier = 0.00244326
vernier = 0.00122163
Gmin = 4.12626e-009
vernier = 0.00162884
vernier = 0.00217179
vernier = 0.00108589
Gmin = 4.11396e-009
vernier = 0.00144786
vernier = 0.00193048
Gmin = 4.09971e-009
vernier = 0.000965239
vernier = 0.00128699
Gmin = 4.09148e-009
vernier = 0.00171598
vernier = 0.00228797
vernier = 0.00114399
Gmin = 4.07834e-009
vernier = 0.00152532
Gmin = 4.06475e-009
vernier = 0.00203375
vernier = 0.00101688
vernier = 0.00135583
Gmin = 4.05529e-009
vernier = 0.00180778
Gmin = 4.03884e-009
vernier = 0.00241037
vernier = 0.00120519
vernier = 0.00160691
Gmin = 4.0279e-009
vernier = 0.00214255
vernier = 0.00107128
Gmin = 4.01767e-009
vernier = 0.00142837
vernier = 0.00190449
vernier = 0.000952245
Gmin = 4.00716e-009
vernier = 0.00126966
vernier = 0.00169288
Gmin = 3.99499e-009
vernier = 0.00225717
vernier = 0.00112859
Gmin = 3.98318e-009
vernier = 0.00150478
vernier = 0.00200637
vernier = 0.00100319
Gmin = 3.97196e-009
vernier = 0.00133758
Gmin = 3.96035e-009
vernier = 0.00178344
vernier = 0.00237792
vernier = 0.00118896
Gmin = 3.94728e-009
vernier = 0.00158528
Gmin = 3.93323e-009
vernier = 0.00211371
vernier = 0.00105685
vernier = 0.00140914
Gmin = 3.92389e-009
vernier = 0.00187885
vernier = 0.000939425
Gmin = 3.91515e-009
vernier = 0.00125257
vernier = 0.00167009
Gmin = 3.90128e-009
vernier = 0.00222678
vernier = 0.00111339
vernier = 0.00148452
Gmin = 3.89116e-009
vernier = 0.00197936
vernier = 0.000989681
Gmin = 3.88106e-009
vernier = 0.00131957
vernier = 0.00175943
Gmin = 3.86807e-009
vernier = 0.00234591
vernier = 0.00117295
Gmin = 3.85675e-009
vernier = 0.00156394
vernier = 0.00208525
vernier = 0.00104263
Gmin = 3.84558e-009
vernier = 0.00139017
Gmin = 3.83357e-009
vernier = 0.00185356
vernier = 0.000926778
vernier = 0.0012357
Gmin = 3.82559e-009
vernier = 0.0016476
vernier = 0.00219681
Gmin = 3.81052e-009
vernier = 0.0010984
vernier = 0.00146454
Gmin = 3.80181e-009
vernier = 0.00195272
vernier = 0.000976358
vernier = 0.00130181
Gmin = 3.79316e-009
vernier = 0.00173575
Gmin = 3.77879e-009
vernier = 0.00231433
vernier = 0.00115716
vernier = 0.00154288
Gmin = 3.76878e-009
vernier = 0.00205718
vernier = 0.00102859
Gmin = 3.75911e-009
vernier = 0.00137145
vernier = 0.0018286
vernier = 0.000914301
Gmin = 3.74956e-009
vernier = 0.00121907
Gmin = 3.73929e-009
vernier = 0.00162542
vernier = 0.00216723
vernier = 0.00108362
Gmin = 3.72817e-009
vernier = 0.00144482
vernier = 0.00192643
Gmin = 3.71529e-009
vernier = 0.000963213
vernier = 0.00128428
Gmin = 3.70784e-009
vernier = 0.00171238
vernier = 0.000856189
vernier = 0.00114159
Gmin = 3.70044e-009
vernier = 0.00152211
Gmin = 3.68814e-009
vernier = 0.00202948
vernier = 0.00101474
vernier = 0.00135299
Gmin = 3.67958e-009
vernier = 0.00180398
vernier = 0.000901992
Gmin = 3.67129e-009
vernier = 0.00120266
vernier = 0.00160354
Gmin = 3.65945e-009
vernier = 0.00213805
vernier = 0.00106903
Gmin = 3.65017e-009
vernier = 0.00142537
vernier = 0.00190049
vernier = 0.000950246
Gmin = 3.64064e-009
vernier = 0.00126699
vernier = 0.00168933
Gmin = 3.62961e-009
vernier = 0.000844663
vernier = 0.00112622
Gmin = 3.62323e-009
vernier = 0.00150162
vernier = 0.00200216
vernier = 0.00100108
Gmin = 3.61305e-009
vernier = 0.00133477
Gmin = 3.60251e-009
vernier = 0.0017797
vernier = 0.000889849
vernier = 0.00118647
Gmin = 3.59517e-009
vernier = 0.00158195
Gmin = 3.5824e-009
vernier = 0.00210927
vernier = 0.00105464
vernier = 0.00140618
Gmin = 3.57391e-009
vernier = 0.00187491
vernier = 0.000937453
Gmin = 3.56597e-009
vernier = 0.00124994
vernier = 0.00166658
vernier = 0.000833291
Gmin = 3.55781e-009
vernier = 0.00111105
vernier = 0.00148141
Gmin = 3.54835e-009
vernier = 0.00197521
vernier = 0.000987604
Gmin = 3.53916e-009
vernier = 0.0013168
vernier = 0.00175574
vernier = 0.00087787
Gmin = 3.53044e-009
vernier = 0.00117049
Gmin = 3.52141e-009
vernier = 0.00156066
vernier = 0.00208087
vernier = 0.00104044
Gmin = 3.51124e-009
vernier = 0.00138725
Gmin = 3.5003e-009
vernier = 0.00184967
vernier = 0.000924833
vernier = 0.00123311
Gmin = 3.49302e-009
vernier = 0.00164415
vernier = 0.000822073
Gmin = 3.48621e-009
vernier = 0.0010961
vernier = 0.00146146
Gmin = 3.4754e-009
vernier = 0.00194862
vernier = 0.000974308
vernier = 0.00129908
Gmin = 3.46751e-009
vernier = 0.0017321
vernier = 0.000866051
Gmin = 3.45964e-009
vernier = 0.00115473
vernier = 0.00153965
Gmin = 3.4495e-009
vernier = 0.00205286
vernier = 0.00102643
Gmin = 3.44066e-009
vernier = 0.00136857
vernier = 0.00182476
vernier = 0.000912382
Gmin = 3.43194e-009
vernier = 0.00121651
Gmin = 3.42256e-009
vernier = 0.00162201
vernier = 0.000811006
vernier = 0.00108134
Gmin = 3.41632e-009
vernier = 0.00144179
vernier = 0.00192238
Gmin = 3.40455e-009
vernier = 0.000961191
vernier = 0.00128159
Gmin = 3.39774e-009
vernier = 0.00170878
vernier = 0.000854392
vernier = 0.00113919
Gmin = 3.39097e-009
vernier = 0.00151892
Gmin = 3.37972e-009
vernier = 0.00202522
vernier = 0.00101261
vernier = 0.00135015
Gmin = 3.37189e-009
vernier = 0.0018002
vernier = 0.000900099
Gmin = 3.36431e-009
vernier = 0.00120013
vernier = 0.00160018
vernier = 0.000800088
Gmin = 3.35684e-009
vernier = 0.00106678
Gmin = 3.34879e-009
vernier = 0.00142238
vernier = 0.0018965
vernier = 0.000948251
Gmin = 3.34007e-009
vernier = 0.00126433
vernier = 0.00168578
Gmin = 3.32997e-009
vernier = 0.000842889
vernier = 0.00112385
Gmin = 3.32413e-009
vernier = 0.00149847
vernier = 0.00199796
vernier = 0.000998979
Gmin = 3.3148e-009
vernier = 0.00133197
Gmin = 3.30516e-009
vernier = 0.00177596
vernier = 0.000887981
vernier = 0.00118397
Gmin = 3.29844e-009
vernier = 0.00157863
vernier = 0.000789316
Gmin = 3.29194e-009
vernier = 0.00105242
vernier = 0.00140323
Gmin = 3.28264e-009
vernier = 0.00187097
vernier = 0.000935485
Gmin = 3.27536e-009
vernier = 0.00124731
vernier = 0.00166308
vernier = 0.000831542
Gmin = 3.26788e-009
vernier = 0.00110872
vernier = 0.0014783
Gmin = 3.25921e-009
vernier = 0.00197106
vernier = 0.000985531
Gmin = 3.25079e-009
vernier = 0.00131404
vernier = 0.00175205
vernier = 0.000876027
Gmin = 3.24279e-009
vernier = 0.00116804
Gmin = 3.23452e-009
vernier = 0.00155738
vernier = 0.00077869
vernier = 0.00103825
Gmin = 3.22875e-009
vernier = 0.00138434
Gmin = 3.21871e-009
vernier = 0.00184578
vernier = 0.000922891
vernier = 0.00123052
Gmin = 3.21204e-009
vernier = 0.00164069
vernier = 0.000820347
Gmin = 3.20579e-009
vernier = 0.0010938
vernier = 0.00145839
Gmin = 3.19587e-009
vernier = 0.00194453
vernier = 0.000972263
vernier = 0.00129635
Gmin = 3.18863e-009
vernier = 0.00172847
vernier = 0.000864233
Gmin = 3.1814e-009
vernier = 0.00115231
vernier = 0.00153641
vernier = 0.000768207
Gmin = 3.17454e-009
vernier = 0.00102428
Gmin = 3.16743e-009
vernier = 0.0013657
vernier = 0.00182093
vernier = 0.000910467
Gmin = 3.15942e-009
vernier = 0.00121396
Gmin = 3.15081e-009
vernier = 0.00161861
vernier = 0.000809303
vernier = 0.00107907
Gmin = 3.14508e-009
vernier = 0.00143876
vernier = 0.00071938
Gmin = 3.13971e-009
vernier = 0.000959174
vernier = 0.0012789
Gmin = 3.13119e-009
vernier = 0.0017052
vernier = 0.000852598
vernier = 0.0011368
Gmin = 3.12497e-009
vernier = 0.00151573
vernier = 0.000757865
Gmin = 3.11876e-009
vernier = 0.00101049
vernier = 0.00134731
Gmin = 3.11076e-009
vernier = 0.00179642
vernier = 0.000898209
Gmin = 3.10378e-009
vernier = 0.00119761
vernier = 0.00159682
vernier = 0.000798408
Gmin = 3.0969e-009
vernier = 0.00106454
Gmin = 3.08949e-009
vernier = 0.00141939
vernier = 0.000709696
vernier = 0.000946261
Gmin = 3.08456e-009
vernier = 0.00126168
vernier = 0.00168224
Gmin = 3.07525e-009
vernier = 0.00084112
vernier = 0.00112149
Gmin = 3.06987e-009
vernier = 0.00149532
vernier = 0.000747662
vernier = 0.000996882
Gmin = 3.06452e-009
vernier = 0.00132918
Gmin = 3.05562e-009
vernier = 0.00177223
vernier = 0.000886117
vernier = 0.00118149
Gmin = 3.04942e-009
vernier = 0.00157532
vernier = 0.000787659
Gmin = 3.04343e-009
vernier = 0.00105021
vernier = 0.00140028
vernier = 0.000700141
Gmin = 3.03751e-009
vernier = 0.000933521
Gmin = 3.03113e-009
vernier = 0.0012447
vernier = 0.00165959
vernier = 0.000829796
Gmin = 3.02423e-009
vernier = 0.0011064
vernier = 0.00147519
Gmin = 3.01622e-009
vernier = 0.000737596
vernier = 0.000983462
Gmin = 3.01159e-009
vernier = 0.00131128
vernier = 0.00174838
vernier = 0.000874188
Gmin = 3.0042e-009
vernier = 0.00116558
Gmin = 2.99655e-009
vernier = 0.00155411
vernier = 0.000777055
vernier = 0.00103607
Gmin = 2.99122e-009
vernier = 0.00138143
vernier = 0.000690716
Gmin = 2.98606e-009
vernier = 0.000920954
vernier = 0.00122794
Gmin = 2.97868e-009
vernier = 0.00163725
vernier = 0.000818625
Gmin = 2.97289e-009
vernier = 0.0010915
vernier = 0.00145533
vernier = 0.000727667
Gmin = 2.96695e-009
vernier = 0.000970222
vernier = 0.00129363
Gmin = 2.96006e-009
vernier = 0.00172484
vernier = 0.000862419
Gmin = 2.95337e-009
vernier = 0.00114989
vernier = 0.00153319
vernier = 0.000766594
Gmin = 2.94701e-009
vernier = 0.00102213
Gmin = 2.94043e-009
vernier = 0.00136283
vernier = 0.000681417
vernier = 0.000908555
Gmin = 2.93584e-009
vernier = 0.00121141
Gmin = 2.92785e-009
vernier = 0.00161521
vernier = 0.000807604
vernier = 0.00107681
Gmin = 2.92253e-009
vernier = 0.00143574
vernier = 0.00071787
Gmin = 2.91756e-009
vernier = 0.00095716
vernier = 0.00127621
Gmin = 2.90966e-009
vernier = 0.00170162
vernier = 0.000850809
vernier = 0.00113441
Gmin = 2.90389e-009
vernier = 0.00151255
vernier = 0.000756274
Gmin = 2.89813e-009
vernier = 0.00100836
vernier = 0.00134449
vernier = 0.000672243
Gmin = 2.89265e-009
vernier = 0.000896324
Gmin = 2.88699e-009
vernier = 0.0011951
vernier = 0.00159346
vernier = 0.000796732
Gmin = 2.8806e-009
vernier = 0.00106231
Gmin = 2.87372e-009
vernier = 0.00141641
vernier = 0.000708206
vernier = 0.000944274
Gmin = 2.86915e-009
vernier = 0.00125903
vernier = 0.00167871
Gmin = 2.86051e-009
vernier = 0.000839354
vernier = 0.00111914
Gmin = 2.85551e-009
vernier = 0.00149218
vernier = 0.000746092
vernier = 0.00099479
Gmin = 2.85054e-009
vernier = 0.00132639
vernier = 0.000663193
Gmin = 2.84559e-009
vernier = 0.000884257
vernier = 0.00117901
Gmin = 2.8392e-009
vernier = 0.00157201
vernier = 0.000786006
Gmin = 2.83363e-009
vernier = 0.00104801
vernier = 0.00139734
vernier = 0.000698672
Gmin = 2.82813e-009
vernier = 0.000931562
Gmin = 2.82221e-009
vernier = 0.00124208
vernier = 0.00165611
vernier = 0.000828055
Gmin = 2.81579e-009
vernier = 0.00110407
vernier = 0.0014721
Gmin = 2.80835e-009
vernier = 0.000736048
vernier = 0.000981397
Gmin = 2.80405e-009
vernier = 0.00130853
vernier = 0.000654265
vernier = 0.000872353
Gmin = 2.79977e-009
vernier = 0.00116314
Gmin = 2.79266e-009
vernier = 0.00155085
vernier = 0.000775424
vernier = 0.0010339
Gmin = 2.7877e-009
vernier = 0.00137853
vernier = 0.000689266
Gmin = 2.7829e-009
vernier = 0.000919021
vernier = 0.00122536
Gmin = 2.77604e-009
vernier = 0.00163381
vernier = 0.000816907
Gmin = 2.77066e-009
vernier = 0.00108921
vernier = 0.00145228
vernier = 0.000726139
Gmin = 2.76513e-009
vernier = 0.000968185
vernier = 0.00129091
Gmin = 2.75872e-009
vernier = 0.000645457
vernier = 0.000860609
Gmin = 2.75502e-009
vernier = 0.00114748
vernier = 0.00152997
vernier = 0.000764985
Gmin = 2.7491e-009
vernier = 0.00101998
Gmin = 2.74297e-009
vernier = 0.00135997
vernier = 0.000679986
vernier = 0.000906648
Gmin = 2.7387e-009
vernier = 0.00120886
Gmin = 2.73126e-009
vernier = 0.00161182
vernier = 0.000805909
vernier = 0.00107455
Gmin = 2.72631e-009
vernier = 0.00143273
vernier = 0.000716363
Gmin = 2.72168e-009
vernier = 0.000955151
vernier = 0.00127353
vernier = 0.000636767
Gmin = 2.71692e-009
vernier = 0.000849023
vernier = 0.00113203
Gmin = 2.7114e-009
vernier = 0.00150937
vernier = 0.000754686
Gmin = 2.70603e-009
vernier = 0.00100625
vernier = 0.00134166
vernier = 0.000670832
Gmin = 2.70093e-009
vernier = 0.000894442
Gmin = 2.69565e-009
vernier = 0.00119259
vernier = 0.00159012
vernier = 0.00079506
Gmin = 2.6897e-009
vernier = 0.00106008
Gmin = 2.68329e-009
vernier = 0.00141344
vernier = 0.000706719
vernier = 0.000942292
Gmin = 2.67903e-009
vernier = 0.00125639
vernier = 0.000628195
Gmin = 2.67504e-009
vernier = 0.000837593
vernier = 0.00111679
Gmin = 2.6687e-009
vernier = 0.00148905
vernier = 0.000744526
vernier = 0.000992701
Gmin = 2.66406e-009
vernier = 0.0013236
vernier = 0.000661801
Gmin = 2.65944e-009
vernier = 0.000882401
vernier = 0.00117653
Gmin = 2.65348e-009
vernier = 0.00156871
vernier = 0.000784356
Gmin = 2.64829e-009
vernier = 0.00104581
vernier = 0.00139441
vernier = 0.000697205
Gmin = 2.64316e-009
vernier = 0.000929606
Gmin = 2.63763e-009
vernier = 0.00123947
vernier = 0.000619737
vernier = 0.000826316
Gmin = 2.63396e-009
vernier = 0.00110175
vernier = 0.00146901
Gmin = 2.62702e-009
vernier = 0.000734503
vernier = 0.000979337
Gmin = 2.623e-009
vernier = 0.00130578
vernier = 0.000652891
vernier = 0.000870521
Gmin = 2.61901e-009
vernier = 0.0011607
Gmin = 2.61237e-009
vernier = 0.00154759
vernier = 0.000773796
vernier = 0.00103173
Gmin = 2.60774e-009
vernier = 0.00137564
vernier = 0.000687819
Gmin = 2.60326e-009
vernier = 0.000917091
vernier = 0.00122279
vernier = 0.000611394
Gmin = 2.59884e-009
vernier = 0.000815192
Gmin = 2.59408e-009
vernier = 0.00108692
vernier = 0.00144923
vernier = 0.000724615
Gmin = 2.58891e-009
vernier = 0.000966153
vernier = 0.0012882
Gmin = 2.58293e-009
vernier = 0.000644102
vernier = 0.000858802
Gmin = 2.57946e-009
vernier = 0.00114507
vernier = 0.00152676
vernier = 0.000763379
Gmin = 2.57393e-009
vernier = 0.00101784
Gmin = 2.56821e-009
vernier = 0.00135712
vernier = 0.000678559
vernier = 0.000904745
Gmin = 2.56422e-009
vernier = 0.00120633
vernier = 0.000603163
Gmin = 2.56036e-009
vernier = 0.000804217
vernier = 0.00107229
Gmin = 2.55483e-009
vernier = 0.00142972
vernier = 0.00071486
Gmin = 2.55049e-009
vernier = 0.000953146
vernier = 0.00127086
vernier = 0.00063543
Gmin = 2.54604e-009
vernier = 0.00084724
vernier = 0.00112965
Gmin = 2.54088e-009
vernier = 0.0015062
vernier = 0.000753102
Gmin = 2.53586e-009
vernier = 0.00100414
vernier = 0.00133885
vernier = 0.000669424
Gmin = 2.53109e-009
vernier = 0.000892565
Gmin = 2.52616e-009
vernier = 0.00119009
vernier = 0.000595043
vernier = 0.000793391
Gmin = 2.52271e-009
vernier = 0.00105785
Gmin = 2.51672e-009
vernier = 0.00141047
vernier = 0.000705236
vernier = 0.000940314
Gmin = 2.51273e-009
vernier = 0.00125375
vernier = 0.000626876
Gmin = 2.50899e-009
vernier = 0.000835834
vernier = 0.00111445
Gmin = 2.50306e-009
vernier = 0.00148593
vernier = 0.000742963
vernier = 0.000990618
Gmin = 2.49872e-009
vernier = 0.00132082
vernier = 0.000660412
Gmin = 2.49439e-009
vernier = 0.000880549
vernier = 0.00117406
vernier = 0.000587032
Gmin = 2.49028e-009
vernier = 0.000782709
Gmin = 2.48602e-009
vernier = 0.00104361
vernier = 0.00139148
vernier = 0.000695741
Gmin = 2.48121e-009
vernier = 0.000927655
Gmin = 2.47604e-009
vernier = 0.00123687
vernier = 0.000618436
vernier = 0.000824582
Gmin = 2.4726e-009
vernier = 0.00109944
vernier = 0.00146592
Gmin = 2.46609e-009
vernier = 0.000732961
vernier = 0.000977281
Gmin = 2.46233e-009
vernier = 0.00130304
vernier = 0.000651521
vernier = 0.000868694
Gmin = 2.45859e-009
vernier = 0.00115826
vernier = 0.000579129
Gmin = 2.45486e-009
vernier = 0.000772172
vernier = 0.00102956
Gmin = 2.45005e-009
vernier = 0.00137275
vernier = 0.000686375
Gmin = 2.44585e-009
vernier = 0.000915166
vernier = 0.00122022
vernier = 0.000610111
Gmin = 2.4417e-009
vernier = 0.000813481
Gmin = 2.43723e-009
vernier = 0.00108464
vernier = 0.00144619
vernier = 0.000723094
Gmin = 2.43239e-009
vernier = 0.000964125
vernier = 0.0012855
Gmin = 2.42678e-009
vernier = 0.00064275
vernier = 0.000856999
Gmin = 2.42353e-009
vernier = 0.00114267
vernier = 0.000571333
vernier = 0.000761777
Gmin = 2.42031e-009
vernier = 0.0010157
Gmin = 2.41494e-009
vernier = 0.00135427
vernier = 0.000677135
vernier = 0.000902846
Gmin = 2.41119e-009
vernier = 0.00120379
vernier = 0.000601897
Gmin = 2.40757e-009
vernier = 0.000802529
vernier = 0.00107004
vernier = 0.000535019
Gmin = 2.40399e-009
vernier = 0.000713359
Gmin = 2.40013e-009
vernier = 0.000951145
vernier = 0.00126819
vernier = 0.000634097
Gmin = 2.39595e-009
vernier = 0.000845462
vernier = 0.00112728
Gmin = 2.3911e-009
vernier = 0.000563641
vernier = 0.000751521
Gmin = 2.3883e-009
vernier = 0.00100203
vernier = 0.00133604
vernier = 0.000668019
Gmin = 2.38381e-009
vernier = 0.000890691
Gmin = 2.37917e-009
vernier = 0.00118759
vernier = 0.000593794
vernier = 0.000791725
Gmin = 2.37594e-009
vernier = 0.00105563
vernier = 0.000527817
Gmin = 2.37281e-009
vernier = 0.000703755
vernier = 0.00093834
Gmin = 2.36832e-009
vernier = 0.00125112
vernier = 0.00062556
Gmin = 2.36481e-009
vernier = 0.00083408
vernier = 0.00111211
vernier = 0.000556053
Gmin = 2.36119e-009
vernier = 0.000741404
vernier = 0.000988538
Gmin = 2.357e-009
vernier = 0.00131805
vernier = 0.000659025
Gmin = 2.35293e-009
vernier = 0.0008787
vernier = 0.0011716
vernier = 0.0005858
Gmin = 2.34906e-009
vernier = 0.000781066
Gmin = 2.34505e-009
vernier = 0.00104142
vernier = 0.000520711
vernier = 0.000694281
Gmin = 2.34225e-009
vernier = 0.000925708
Gmin = 2.33738e-009
vernier = 0.00123428
vernier = 0.000617138
vernier = 0.000822851
Gmin = 2.33414e-009
vernier = 0.00109713
vernier = 0.000548567
Gmin = 2.3311e-009
vernier = 0.000731423
vernier = 0.00097523
Gmin = 2.32627e-009
vernier = 0.00130031
vernier = 0.000650153
vernier = 0.000866871
Gmin = 2.32275e-009
vernier = 0.00115583
vernier = 0.000577914
Gmin = 2.31923e-009
vernier = 0.000770551
vernier = 0.0010274
vernier = 0.000513701
Gmin = 2.31588e-009
vernier = 0.000684934
Gmin = 2.31241e-009
vernier = 0.000913245
vernier = 0.00121766
vernier = 0.00060883
Gmin = 2.3085e-009
vernier = 0.000811773
Gmin = 2.30429e-009
vernier = 0.00108236
vernier = 0.000541182
vernier = 0.000721576
Gmin = 2.30148e-009
vernier = 0.000962101
vernier = 0.0012828
Gmin = 2.29618e-009
vernier = 0.0006414
vernier = 0.0008552
Gmin = 2.29312e-009
vernier = 0.00114027
vernier = 0.000570133
vernier = 0.000760178
Gmin = 2.29007e-009
vernier = 0.00101357
vernier = 0.000506785
Gmin = 2.28703e-009
vernier = 0.000675713
vernier = 0.000900951
Gmin = 2.2831e-009
vernier = 0.00120127
vernier = 0.000600634
Gmin = 2.27968e-009
vernier = 0.000800845
vernier = 0.00106779
vernier = 0.000533896
Gmin = 2.27629e-009
vernier = 0.000711861
Gmin = 2.27265e-009
vernier = 0.000949148
vernier = 0.00126553
vernier = 0.000632765
Gmin = 2.2687e-009
vernier = 0.000843687
vernier = 0.00112492
Gmin = 2.26412e-009
vernier = 0.000562458
vernier = 0.000749944
Gmin = 2.26147e-009
vernier = 0.000999925
vernier = 0.000499962
vernier = 0.000666616
Gmin = 2.25883e-009
vernier = 0.000888821
Gmin = 2.25444e-009
vernier = 0.00118509
vernier = 0.000592547
vernier = 0.000790063
Gmin = 2.25139e-009
vernier = 0.00105342
vernier = 0.000526709
Gmin = 2.24842e-009
vernier = 0.000702278
vernier = 0.00093637
Gmin = 2.24418e-009
vernier = 0.00124849
vernier = 0.000624247
Gmin = 2.24086e-009
vernier = 0.000832329
vernier = 0.00110977
vernier = 0.000554886
Gmin = 2.23744e-009
vernier = 0.000739847
vernier = 0.000986463
Gmin = 2.23348e-009
vernier = 0.000493232
vernier = 0.000657642
Gmin = 2.23119e-009
vernier = 0.000876856
vernier = 0.00116914
vernier = 0.00058457
Gmin = 2.22752e-009
vernier = 0.000779427
Gmin = 2.22373e-009
vernier = 0.00103924
vernier = 0.000519618
vernier = 0.000692823
Gmin = 2.22108e-009
vernier = 0.000923764
Gmin = 2.21647e-009
vernier = 0.00123169
vernier = 0.000615843
vernier = 0.000821124
Gmin = 2.2134e-009
vernier = 0.00109483
vernier = 0.000547416
Gmin = 2.21053e-009
vernier = 0.000729887
vernier = 0.000973183
vernier = 0.000486591
Gmin = 2.20757e-009
vernier = 0.000648788
vernier = 0.000865051
Gmin = 2.20414e-009
vernier = 0.0011534
vernier = 0.0005767
Gmin = 2.20081e-009
vernier = 0.000768934
vernier = 0.00102524
vernier = 0.000512622
Gmin = 2.19764e-009
vernier = 0.000683496
Gmin = 2.19435e-009
vernier = 0.000911328
vernier = 0.0012151
vernier = 0.000607552
Gmin = 2.19065e-009
vernier = 0.000810069
Gmin = 2.18666e-009
vernier = 0.00108009
vernier = 0.000540046
vernier = 0.000720061
Gmin = 2.18401e-009
vernier = 0.000960081
vernier = 0.000480041
Gmin = 2.18152e-009
vernier = 0.000640054
vernier = 0.000853405
Gmin = 2.17757e-009
vernier = 0.00113787
vernier = 0.000568937
vernier = 0.000758582
Gmin = 2.17468e-009
vernier = 0.00101144
vernier = 0.000505721
Gmin = 2.17179e-009
vernier = 0.000674295
vernier = 0.000899059
Gmin = 2.16807e-009
vernier = 0.00119875
vernier = 0.000599373
Gmin = 2.16483e-009
vernier = 0.000799163
vernier = 0.00106555
vernier = 0.000532775
Gmin = 2.16162e-009
vernier = 0.000710367
Gmin = 2.15817e-009
vernier = 0.000947156
vernier = 0.000473578
vernier = 0.000631437
Gmin = 2.15587e-009
vernier = 0.000841916
vernier = 0.00112255
Gmin = 2.15153e-009
vernier = 0.000561277
vernier = 0.000748369
Gmin = 2.14901e-009
vernier = 0.000997826
vernier = 0.000498913
vernier = 0.000665217
Gmin = 2.14651e-009
vernier = 0.000886956
Gmin = 2.14235e-009
vernier = 0.00118261
vernier = 0.000591304
vernier = 0.000788405
Gmin = 2.13945e-009
vernier = 0.00105121
vernier = 0.000525603
Gmin = 2.13664e-009
vernier = 0.000700804
vernier = 0.000934405
Gmin = 2.13262e-009
vernier = 0.00124587
vernier = 0.000622936
Gmin = 2.12947e-009
vernier = 0.000830582
vernier = 0.00110744
vernier = 0.000553721
Gmin = 2.12623e-009
vernier = 0.000738294
vernier = 0.000984392
Gmin = 2.12247e-009
vernier = 0.000492196
vernier = 0.000656261
Gmin = 2.1203e-009
vernier = 0.000875015
vernier = 0.00116669
vernier = 0.000583343
Gmin = 2.11682e-009
vernier = 0.000777791
Gmin = 2.11323e-009
vernier = 0.00103705
vernier = 0.000518527
vernier = 0.000691369
Gmin = 2.11072e-009
vernier = 0.000921825
Gmin = 2.10634e-009
vernier = 0.0012291
vernier = 0.00061455
vernier = 0.0008194
Gmin = 2.10343e-009
vernier = 0.00109253
vernier = 0.000546266
Gmin = 2.10071e-009
vernier = 0.000728355
vernier = 0.00097114
vernier = 0.00048557
Gmin = 2.0979e-009
vernier = 0.000647426
vernier = 0.000863235
Gmin = 2.09465e-009
vernier = 0.00115098
vernier = 0.00057549
Gmin = 2.09149e-009
vernier = 0.00076732
vernier = 0.00102309
vernier = 0.000511546
Gmin = 2.08848e-009
vernier = 0.000682062
Gmin = 2.08537e-009
vernier = 0.000909415
vernier = 0.00121255
vernier = 0.000606277
Gmin = 2.08186e-009
vernier = 0.000808369
Gmin = 2.07807e-009
vernier = 0.00107782
vernier = 0.000538912
vernier = 0.000718549
Gmin = 2.07556e-009
vernier = 0.000958066
vernier = 0.000479033
Gmin = 2.0732e-009
vernier = 0.00063871
vernier = 0.000851614
Gmin = 2.06945e-009
vernier = 0.00113548
vernier = 0.000567742
vernier = 0.000756989
Gmin = 2.06671e-009
vernier = 0.00100932
vernier = 0.00050466
Gmin = 2.06397e-009
vernier = 0.000672879
vernier = 0.000897172
Gmin = 2.06045e-009
vernier = 0.00119623
vernier = 0.000598115
Gmin = 2.05737e-009
vernier = 0.000797486
vernier = 0.00106331
vernier = 0.000531657
Gmin = 2.05433e-009
vernier = 0.000708876
Gmin = 2.05105e-009
vernier = 0.000945168
vernier = 0.000472584
vernier = 0.000630112
Gmin = 2.04888e-009
vernier = 0.000840149
vernier = 0.0011202
Gmin = 2.04476e-009
vernier = 0.000560099
vernier = 0.000746798
Gmin = 2.04237e-009
vernier = 0.000995731
vernier = 0.000497865
vernier = 0.00066382
Gmin = 2.04e-009
vernier = 0.000885094
Gmin = 2.03605e-009
vernier = 0.00118012
vernier = 0.000590062
vernier = 0.00078675
Gmin = 2.0333e-009
vernier = 0.001049
vernier = 0.0005245
Gmin = 2.03064e-009
vernier = 0.000699333
vernier = 0.000932443
vernier = 0.000466222
Gmin = 2.02801e-009
vernier = 0.000621629
Gmin = 2.02517e-009
vernier = 0.000828838
vernier = 0.00110512
vernier = 0.000552559
Gmin = 2.0221e-009
vernier = 0.000736745
vernier = 0.000982326
Gmin = 2.01853e-009
vernier = 0.000491163
vernier = 0.000654884
Gmin = 2.01647e-009
vernier = 0.000873178
vernier = 0.00116424
vernier = 0.000582119
Gmin = 2.01317e-009
vernier = 0.000776158
Gmin = 2.00976e-009
vernier = 0.00103488
vernier = 0.000517438
vernier = 0.000689918
Gmin = 2.00737e-009
vernier = 0.00091989
vernier = 0.000459945
Gmin = 2.00507e-009
vernier = 0.00061326
vernier = 0.00081768
Gmin = 2.00177e-009
vernier = 0.00109024
vernier = 0.00054512
Gmin = 1.99918e-009
vernier = 0.000726826
vernier = 0.000969101
vernier = 0.000484551
Gmin = 1.99651e-009
vernier = 0.000646067
vernier = 0.000861423
Gmin = 1.99343e-009
vernier = 0.00114856
vernier = 0.000574282
Gmin = 1.99042e-009
vernier = 0.000765709
vernier = 0.00102094
vernier = 0.000510472
Gmin = 1.98757e-009
vernier = 0.00068063
Gmin = 1.98461e-009
vernier = 0.000907506
vernier = 0.000453753
vernier = 0.000605004
Gmin = 1.98255e-009
vernier = 0.000806672
Gmin = 1.97895e-009
vernier = 0.00107556
vernier = 0.000537781
vernier = 0.000717041
Gmin = 1.97656e-009
vernier = 0.000956055
vernier = 0.000478027
Gmin = 1.97432e-009
vernier = 0.00063737
vernier = 0.000849826
Gmin = 1.97076e-009
vernier = 0.0011331
vernier = 0.00056655
vernier = 0.0007554
Gmin = 1.96815e-009
vernier = 0.0010072
vernier = 0.0005036
Gmin = 1.96555e-009
vernier = 0.000671467
vernier = 0.000895289
vernier = 0.000447644
Gmin = 1.96308e-009
vernier = 0.000596859
Gmin = 1.96052e-009
vernier = 0.000795812
vernier = 0.00106108
vernier = 0.000530541
Gmin = 1.95763e-009
vernier = 0.000707388
Gmin = 1.95452e-009
vernier = 0.000943184
vernier = 0.000471592
vernier = 0.000628789
Gmin = 1.95244e-009
vernier = 0.000838385
vernier = 0.00111785
Gmin = 1.94853e-009
vernier = 0.000558923
vernier = 0.000745231
Gmin = 1.94626e-009
vernier = 0.000993641
vernier = 0.00049682
vernier = 0.000662427
Gmin = 1.944e-009
vernier = 0.000883236
vernier = 0.000441618
Gmin = 1.94175e-009
vernier = 0.000588824
vernier = 0.000785098
Gmin = 1.93885e-009
vernier = 0.0010468
vernier = 0.000523399
Gmin = 1.93631e-009
vernier = 0.000697865
vernier = 0.000930486
vernier = 0.000465243
Gmin = 1.93381e-009
vernier = 0.000620324
Gmin = 1.93111e-009
vernier = 0.000827098
vernier = 0.0011028
vernier = 0.000551399
Gmin = 1.92819e-009
vernier = 0.000735198
vernier = 0.000980264
Gmin = 1.92479e-009
vernier = 0.000490132
vernier = 0.000653509
Gmin = 1.92283e-009
vernier = 0.000871345
vernier = 0.000435673
vernier = 0.000580897
Gmin = 1.92088e-009
vernier = 0.000774529
Gmin = 1.91762e-009
vernier = 0.0010327
vernier = 0.000516352
vernier = 0.00068847
Gmin = 1.91536e-009
vernier = 0.000917959
vernier = 0.00045898
Gmin = 1.91316e-009
vernier = 0.000611973
vernier = 0.000815963
Gmin = 1.91002e-009
vernier = 0.00108795
vernier = 0.000543975
Gmin = 1.90755e-009
vernier = 0.0007253
vernier = 0.000967067
vernier = 0.000483533
Gmin = 1.90502e-009
vernier = 0.000644711
vernier = 0.000859615
Gmin = 1.90208e-009
vernier = 0.000429807
vernier = 0.000573076
Gmin = 1.90037e-009
vernier = 0.000764101
vernier = 0.0010188
vernier = 0.000509401
Gmin = 1.89765e-009
vernier = 0.000679201
Gmin = 1.89484e-009
vernier = 0.000905601
vernier = 0.000452801
vernier = 0.000603734
Gmin = 1.89287e-009
vernier = 0.000804978
Gmin = 1.88945e-009
vernier = 0.0010733
vernier = 0.000536652
vernier = 0.000715536
Gmin = 1.88717e-009
vernier = 0.000954048
vernier = 0.000477024
Gmin = 1.88503e-009
vernier = 0.000636032
vernier = 0.000848042
vernier = 0.000424021
Gmin = 1.88283e-009
vernier = 0.000565361
vernier = 0.000753815
Gmin = 1.88029e-009
vernier = 0.00100509
vernier = 0.000502543
Gmin = 1.87781e-009
vernier = 0.000670057
vernier = 0.000893409
vernier = 0.000446705
Gmin = 1.87545e-009
vernier = 0.000595606
Gmin = 1.87301e-009
vernier = 0.000794141
vernier = 0.00105885
vernier = 0.000529427
Gmin = 1.87025e-009
vernier = 0.000705903
Gmin = 1.86728e-009
vernier = 0.000941204
vernier = 0.000470602
vernier = 0.000627469
Gmin = 1.86531e-009
vernier = 0.000836625
vernier = 0.000418313
Gmin = 1.86346e-009
vernier = 0.00055775
vernier = 0.000743666
Gmin = 1.86051e-009
vernier = 0.000991555
vernier = 0.000495777
vernier = 0.000661036
Gmin = 1.85836e-009
vernier = 0.000881382
vernier = 0.000440691
Gmin = 1.85621e-009
vernier = 0.000587588
vernier = 0.00078345
Gmin = 1.85344e-009
vernier = 0.0010446
vernier = 0.0005223
Gmin = 1.85103e-009
vernier = 0.0006964
vernier = 0.000928533
vernier = 0.000464266
Gmin = 1.84864e-009
vernier = 0.000619022
Gmin = 1.84606e-009
vernier = 0.000825362
vernier = 0.000412681
vernier = 0.000550241
Gmin = 1.84435e-009
vernier = 0.000733655
vernier = 0.000978206
Gmin = 1.84111e-009
vernier = 0.000489103
vernier = 0.000652137
Gmin = 1.83924e-009
vernier = 0.000869516
vernier = 0.000434758
vernier = 0.000579677
Gmin = 1.83737e-009
vernier = 0.000772903
Gmin = 1.83427e-009
vernier = 0.00103054
vernier = 0.000515268
vernier = 0.000687024
Gmin = 1.83211e-009
vernier = 0.000916032
vernier = 0.000458016
Gmin = 1.83001e-009
vernier = 0.000610688
vernier = 0.00081425
vernier = 0.000407125
Gmin = 1.82794e-009
vernier = 0.000542834
Gmin = 1.82571e-009
vernier = 0.000723778
vernier = 0.000965037
vernier = 0.000482518
Gmin = 1.82329e-009
vernier = 0.000643358
vernier = 0.00085781
Gmin = 1.82048e-009
vernier = 0.000428905
vernier = 0.000571873
Gmin = 1.81885e-009
vernier = 0.000762497
vernier = 0.00101666
vernier = 0.000508332
Gmin = 1.81625e-009
vernier = 0.000677775
Gmin = 1.81356e-009
vernier = 0.0009037
vernier = 0.00045185
vernier = 0.000602467
Gmin = 1.81169e-009
vernier = 0.000803289
vernier = 0.000401644
Gmin = 1.80987e-009
vernier = 0.000535526
vernier = 0.000714034
Gmin = 1.80727e-009
vernier = 0.000952045
vernier = 0.000476022
Gmin = 1.80522e-009
vernier = 0.000634696
vernier = 0.000846262
vernier = 0.000423131
Gmin = 1.80312e-009
vernier = 0.000564174
vernier = 0.000752232
Gmin = 1.80069e-009
vernier = 0.00100298
vernier = 0.000501488
Gmin = 1.79832e-009
vernier = 0.000668651
vernier = 0.000891534
vernier = 0.000445767
Gmin = 1.79607e-009
vernier = 0.000594356
Gmin = 1.79373e-009
vernier = 0.000792474
vernier = 0.000594356
vernier = 0.000792474
vernier = 0.000594355
Gmin = 1.79214e-009
vernier = 0.000792474
vernier = 0.000594355
Gmin = 1.79001e-009
vernier = 0.000792474
vernier = 0.000594355
vernier = 0.000792473
Gmin = 1.78779e-009
vernier = 0.000594355
vernier = 0.000792473
vernier = 0.000594355
Gmin = 1.78629e-009
vernier = 0.000792473
vernier = 0.000594355
Gmin = 1.78417e-009
vernier = 0.000792473
vernier = 0.000594355
vernier = 0.000792473
vernier = 0.000594354
Gmin = 1.78258e-009
vernier = 0.000792472
vernier = 0.000594354
Gmin = 1.78046e-009
vernier = 0.000792472
vernier = 0.000594354
vernier = 0.000792472
vernier = 0.000594354
Gmin = 1.77887e-009
vernier = 0.000792472
vernier = 0.000594354
Gmin = 1.77676e-009
vernier = 0.000792472
vernier = 0.000594354
vernier = 0.000792471
Gmin = 1.77456e-009
vernier = 0.000594354
vernier = 0.000792471
vernier = 0.000594353
Gmin = 1.77307e-009
vernier = 0.000792471
vernier = 0.000594353
Gmin = 1.77096e-009
vernier = 0.000792471
vernier = 0.000594353
vernier = 0.000792471
vernier = 0.000594353
Gmin = 1.76938e-009
vernier = 0.00079247
vernier = 0.000594353
Gmin = 1.76728e-009
vernier = 0.00079247
vernier = 0.000594353
vernier = 0.00079247
vernier = 0.000594353
Gmin = 1.76571e-009
vernier = 0.00079247
vernier = 0.000594352
Gmin = 1.76361e-009
vernier = 0.00079247
vernier = 0.000594352
vernier = 0.000792469
Gmin = 1.76143e-009
vernier = 0.000594352
vernier = 0.000792469
vernier = 0.000594352
Gmin = 1.75994e-009
vernier = 0.000792469
vernier = 0.000594352
Gmin = 1.75785e-009
vernier = 0.000792469
vernier = 0.000594352
vernier = 0.000792469
vernier = 0.000594351
Gmin = 1.75629e-009
vernier = 0.000792468
vernier = 0.000594351
Gmin = 1.7542e-009
vernier = 0.000792468
vernier = 0.000594351
vernier = 0.000792468
vernier = 0.000594351
Gmin = 1.75264e-009
vernier = 0.000792468
vernier = 0.000594351
Gmin = 1.75055e-009
vernier = 0.000792468
vernier = 0.000594351
vernier = 0.000792467
Gmin = 1.74839e-009
vernier = 0.000594351
vernier = 0.000792467
vernier = 0.00059435
Gmin = 1.74692e-009
vernier = 0.000792467
vernier = 0.00059435
Gmin = 1.74484e-009
vernier = 0.000792467
vernier = 0.00059435
vernier = 0.000792467
vernier = 0.00059435
Gmin = 1.74329e-009
vernier = 0.000792466
vernier = 0.00059435
Gmin = 1.74122e-009
vernier = 0.000792466
vernier = 0.00059435
vernier = 0.000792466
vernier = 0.00059435
Gmin = 1.73966e-009
vernier = 0.000792466
vernier = 0.000594349
Gmin = 1.7376e-009
vernier = 0.000792466
vernier = 0.000594349
vernier = 0.000792465
Gmin = 1.73545e-009
vernier = 0.000594349
vernier = 0.000792465
vernier = 0.000594349
Gmin = 1.73399e-009
vernier = 0.000792465
vernier = 0.000594349
Gmin = 1.73193e-009
vernier = 0.000792465
vernier = 0.000594349
vernier = 0.000792465
vernier = 0.000594349
Gmin = 1.73038e-009
vernier = 0.000792464
vernier = 0.000594348
Gmin = 1.72833e-009
vernier = 0.000792464
vernier = 0.000594348
vernier = 0.000792464
vernier = 0.000594348
Gmin = 1.72679e-009
vernier = 0.000792464
vernier = 0.000594348
Gmin = 1.72474e-009
vernier = 0.000792464
vernier = 0.000594348
vernier = 0.000792463
Gmin = 1.7226e-009
vernier = 0.000594348
vernier = 0.000792463
vernier = 0.000594347
Gmin = 1.72115e-009
vernier = 0.000792463
vernier = 0.000594347
Gmin = 1.71911e-009
vernier = 0.000792463
vernier = 0.000594347
vernier = 0.000792463
vernier = 0.000594347
Gmin = 1.71758e-009
vernier = 0.000792463
vernier = 0.000594347
Gmin = 1.71554e-009
vernier = 0.000792462
vernier = 0.000594347
vernier = 0.000792462
vernier = 0.000594347
Gmin = 1.71401e-009
vernier = 0.000792462
vernier = 0.000594346
Gmin = 1.71197e-009
vernier = 0.000792462
vernier = 0.000594346
vernier = 0.000792462
Gmin = 1.70985e-009
vernier = 0.000594346
vernier = 0.000792461
vernier = 0.000594346
Gmin = 1.70842e-009
vernier = 0.000792461
vernier = 0.000594346
Gmin = 1.70639e-009
vernier = 0.000792461
vernier = 0.000594346
vernier = 0.000792461
vernier = 0.000594346
Gmin = 1.70487e-009
vernier = 0.000792461
vernier = 0.000594345
Gmin = 1.70284e-009
vernier = 0.00079246
vernier = 0.000594345
vernier = 0.00079246
vernier = 0.000594345
Gmin = 1.70132e-009
vernier = 0.00079246
vernier = 0.000594345
Gmin = 1.6993e-009
vernier = 0.00079246
vernier = 0.000594345
vernier = 0.00079246
Gmin = 1.6972e-009
vernier = 0.000594345
vernier = 0.000792459
vernier = 0.000594344
Gmin = 1.69577e-009
vernier = 0.000792459
vernier = 0.000594344
Gmin = 1.69376e-009
vernier = 0.000792459
vernier = 0.000594344
vernier = 0.000792459
vernier = 0.000594344
Gmin = 1.69225e-009
vernier = 0.000792459
vernier = 0.000594344
Gmin = 1.69024e-009
vernier = 0.000792458
vernier = 0.000594344
vernier = 0.000792458
vernier = 0.000594344
Gmin = 1.68873e-009
vernier = 0.000792458
vernier = 0.000594343
Gmin = 1.68673e-009
vernier = 0.000792458
vernier = 0.000594343
vernier = 0.000792458
Gmin = 1.68464e-009
vernier = 0.000594343
vernier = 0.000792457
vernier = 0.000594343
Gmin = 1.68322e-009
vernier = 0.000792457
vernier = 0.000594343
Gmin = 1.68122e-009
vernier = 0.000792457
vernier = 0.000594343
vernier = 0.000792457
vernier = 0.000594343
Gmin = 1.67972e-009
vernier = 0.000792457
vernier = 0.000594342
Gmin = 1.67773e-009
vernier = 0.000792456
vernier = 0.000594342
vernier = 0.000792456
vernier = 0.000594342
Gmin = 1.67623e-009
vernier = 0.000792456
vernier = 0.000594342
Gmin = 1.67424e-009
vernier = 0.000792456
vernier = 0.000594342
vernier = 0.000792456
Gmin = 1.67217e-009
vernier = 0.000594342
vernier = 0.000792455
vernier = 0.000594342
Gmin = 1.67076e-009
vernier = 0.000792455
vernier = 0.000594341
Gmin = 1.66878e-009
vernier = 0.000792455
vernier = 0.000594341
vernier = 0.000792455
vernier = 0.000594341
Gmin = 1.66729e-009
vernier = 0.000792455
vernier = 0.000594341
Gmin = 1.66531e-009
vernier = 0.000792454
vernier = 0.000594341
vernier = 0.000792454
vernier = 0.000594341
Gmin = 1.66383e-009
vernier = 0.000792454
vernier = 0.00059434
Gmin = 1.66185e-009
vernier = 0.000792454
vernier = 0.00059434
vernier = 0.000792454
Gmin = 1.65979e-009
vernier = 0.00059434
vernier = 0.000792453
vernier = 0.00059434
Gmin = 1.6584e-009
vernier = 0.000792453
vernier = 0.00059434
Gmin = 1.65643e-009
vernier = 0.000792453
vernier = 0.00059434
vernier = 0.000792453
vernier = 0.00059434
Gmin = 1.65495e-009
vernier = 0.000792453
vernier = 0.000594339
Gmin = 1.65298e-009
vernier = 0.000792452
vernier = 0.000594339
vernier = 0.000792452
vernier = 0.000594339
Gmin = 1.65151e-009
vernier = 0.000792452
vernier = 0.000594339
Gmin = 1.64955e-009
vernier = 0.000792452
vernier = 0.000594339
vernier = 0.000792452
Gmin = 1.64751e-009
vernier = 0.000594339
vernier = 0.000792451
vernier = 0.000594339
Gmin = 1.64612e-009
vernier = 0.000792451
vernier = 0.000594338
Gmin = 1.64417e-009
vernier = 0.000792451
vernier = 0.000594338
vernier = 0.000792451
vernier = 0.000594338
Gmin = 1.6427e-009
vernier = 0.000792451
vernier = 0.000594338
Gmin = 1.64075e-009
vernier = 0.00079245
vernier = 0.000594338
vernier = 0.00079245
vernier = 0.000594338
Gmin = 1.63929e-009
vernier = 0.00079245
vernier = 0.000594338
Gmin = 1.63734e-009
vernier = 0.00079245
vernier = 0.000594337
vernier = 0.00079245
Gmin = 1.63532e-009
vernier = 0.000594337
vernier = 0.000792449
vernier = 0.000594337
Gmin = 1.63394e-009
vernier = 0.000792449
vernier = 0.000594337
Gmin = 1.632e-009
vernier = 0.000792449
vernier = 0.000594337
vernier = 0.000792449
vernier = 0.000594337
Gmin = 1.63054e-009
vernier = 0.000792449
vernier = 0.000594336
Gmin = 1.62861e-009
vernier = 0.000792448
vernier = 0.000594336
vernier = 0.000792448
vernier = 0.000594336
Gmin = 1.62716e-009
vernier = 0.000792448
vernier = 0.000594336
Gmin = 1.62522e-009
vernier = 0.000792448
vernier = 0.000594336
vernier = 0.000792448
Gmin = 1.62321e-009
vernier = 0.000594336
vernier = 0.000792447
vernier = 0.000594336
Gmin = 1.62185e-009
vernier = 0.000792447
vernier = 0.000594335
Gmin = 1.61992e-009
vernier = 0.000792447
vernier = 0.000594335
vernier = 0.000792447
vernier = 0.000594335
Gmin = 1.61848e-009
vernier = 0.000792447
vernier = 0.000594335
Gmin = 1.61655e-009
vernier = 0.000792446
vernier = 0.000594335
vernier = 0.000792446
vernier = 0.000594335
Gmin = 1.61511e-009
vernier = 0.000792446
vernier = 0.000594335
Gmin = 1.61319e-009
vernier = 0.000792446
vernier = 0.000594334
vernier = 0.000792446
Gmin = 1.6112e-009
vernier = 0.000594334
vernier = 0.000792445
vernier = 0.000594334
Gmin = 1.60984e-009
vernier = 0.000792445
vernier = 0.000594334
Gmin = 1.60793e-009
vernier = 0.000792445
vernier = 0.000594334
vernier = 0.000792445
vernier = 0.000594334
Gmin = 1.6065e-009
vernier = 0.000792445
vernier = 0.000594334
Gmin = 1.60459e-009
vernier = 0.000792444
vernier = 0.000594333
vernier = 0.000792444
vernier = 0.000594333
Gmin = 1.60316e-009
vernier = 0.000792444
vernier = 0.000594333
Gmin = 1.60126e-009
vernier = 0.000792444
vernier = 0.000594333
vernier = 0.000792444
Gmin = 1.59927e-009
vernier = 0.000594333
vernier = 0.000792443
vernier = 0.000594333
Gmin = 1.59793e-009
vernier = 0.000792443
vernier = 0.000594332
Gmin = 1.59603e-009
vernier = 0.000792443
vernier = 0.000594332
vernier = 0.000792443
vernier = 0.000594332
Gmin = 1.59461e-009
vernier = 0.000792443
vernier = 0.000594332
Gmin = 1.59271e-009
vernier = 0.000792442
vernier = 0.000594332
vernier = 0.000792442
vernier = 0.000594332
Gmin = 1.59129e-009
vernier = 0.000792442
vernier = 0.000594332
Gmin = 1.5894e-009
vernier = 0.000792442
vernier = 0.000594331
vernier = 0.000792442
Gmin = 1.58744e-009
vernier = 0.000594331
vernier = 0.000792442
vernier = 0.000594331
Gmin = 1.5861e-009
vernier = 0.000792441
vernier = 0.000594331
Gmin = 1.58422e-009
vernier = 0.000792441
vernier = 0.000594331
vernier = 0.000792441
vernier = 0.000594331
Gmin = 1.58281e-009
vernier = 0.000792441
vernier = 0.000594331
Gmin = 1.58093e-009
vernier = 0.000792441
vernier = 0.00059433
vernier = 0.00079244
vernier = 0.00059433
Gmin = 1.57952e-009
vernier = 0.00079244
vernier = 0.00059433
Gmin = 1.57764e-009
vernier = 0.00079244
vernier = 0.00059433
vernier = 0.00079244
Gmin = 1.57569e-009
vernier = 0.00059433
vernier = 0.000445747
vernier = 0.00059433
Gmin = 1.57442e-009
vernier = 0.000792439
vernier = 0.000594329
Gmin = 1.57255e-009
vernier = 0.000792439
vernier = 0.000594329
vernier = 0.000792439
vernier = 0.000594329
Gmin = 1.57115e-009
vernier = 0.000792439
vernier = 0.000594329
Gmin = 1.56928e-009
vernier = 0.000792439
vernier = 0.000594329
vernier = 0.000445747
vernier = 0.000594329
Gmin = 1.56794e-009
vernier = 0.000792438
vernier = 0.000594329
vernier = 0.000445746
Gmin = 1.56643e-009
vernier = 0.000594328
vernier = 0.000792438
Gmin = 1.5642e-009
vernier = 0.000594328
vernier = 0.000445746
vernier = 0.000594328
Gmin = 1.56294e-009
vernier = 0.000792437
vernier = 0.000594328
vernier = 0.000445746
Gmin = 1.56155e-009
vernier = 0.000594328
vernier = 0.000792437
vernier = 0.000594328
vernier = 0.000445746
Gmin = 1.55999e-009
vernier = 0.000594328
Gmin = 1.55796e-009
vernier = 0.000792437
vernier = 0.000594327
vernier = 0.000445746
vernier = 0.000594327
Gmin = 1.55663e-009
vernier = 0.000792436
vernier = 0.000594327
vernier = 0.000445745
Gmin = 1.55513e-009
vernier = 0.000594327
vernier = 0.000792436
Gmin = 1.55291e-009
vernier = 0.000594327
vernier = 0.000445745
vernier = 0.000594327
Gmin = 1.55166e-009
vernier = 0.000792435
vernier = 0.000594327
vernier = 0.000445745
Gmin = 1.55028e-009
vernier = 0.000594326
vernier = 0.000792435
vernier = 0.000594326
Gmin = 1.5485e-009
vernier = 0.000792435
vernier = 0.000594326
vernier = 0.000445745
Gmin = 1.54706e-009
vernier = 0.000594326
vernier = 0.000792434
vernier = 0.000594326
Gmin = 1.54534e-009
vernier = 0.000792434
vernier = 0.000594326
vernier = 0.000445744
Gmin = 1.54385e-009
vernier = 0.000594325
vernier = 0.000792434
Gmin = 1.54165e-009
vernier = 0.000594325
vernier = 0.000792434
vernier = 0.000594325
Gmin = 1.54035e-009
vernier = 0.000792433
vernier = 0.000594325
vernier = 0.000445744
Gmin = 1.53898e-009
vernier = 0.000594325
vernier = 0.000792433
vernier = 0.000594325
vernier = 0.000445744
Gmin = 1.53744e-009
vernier = 0.000594325
Gmin = 1.53544e-009
vernier = 0.000792433
vernier = 0.000594324
vernier = 0.000445743
vernier = 0.000594324
Gmin = 1.53413e-009
vernier = 0.000792432
vernier = 0.000594324
vernier = 0.000445743
Gmin = 1.53265e-009
vernier = 0.000594324
vernier = 0.000792432
Gmin = 1.53047e-009
vernier = 0.000594324
vernier = 0.000445743
vernier = 0.000594324
Gmin = 1.52924e-009
vernier = 0.000792431
vernier = 0.000594324
vernier = 0.000445743
Gmin = 1.52787e-009
vernier = 0.000594323
vernier = 0.000792431
vernier = 0.000594323
vernier = 0.000445742
Gmin = 1.52634e-009
vernier = 0.000594323
Gmin = 1.52436e-009
vernier = 0.000792431
vernier = 0.000594323
vernier = 0.00079243
vernier = 0.000594323
Gmin = 1.523e-009
vernier = 0.00079243
vernier = 0.000594323
vernier = 0.000445742
Gmin = 1.52153e-009
vernier = 0.000594323
vernier = 0.00079243
Gmin = 1.51937e-009
vernier = 0.000594322
vernier = 0.000445742
vernier = 0.000594322
Gmin = 1.51814e-009
vernier = 0.000792429
vernier = 0.000594322
vernier = 0.000445742
Gmin = 1.51679e-009
vernier = 0.000594322
vernier = 0.000792429
vernier = 0.000594322
Gmin = 1.51505e-009
vernier = 0.000792429
vernier = 0.000594322
Gmin = 1.51325e-009
vernier = 0.000792429
vernier = 0.000594321
vernier = 0.000445741
vernier = 0.000594321
Gmin = 1.51195e-009
vernier = 0.000792428
vernier = 0.000594321
vernier = 0.000445741
Gmin = 1.51049e-009
vernier = 0.000594321
vernier = 0.000792428
Gmin = 1.50834e-009
vernier = 0.000594321
vernier = 0.000445741
vernier = 0.000594321
Gmin = 1.50713e-009
vernier = 0.000792427
vernier = 0.000594321
vernier = 0.00044574
Gmin = 1.50579e-009
vernier = 0.00059432
vernier = 0.000792427
vernier = 0.00059432
vernier = 0.00044574
Gmin = 1.50428e-009
vernier = 0.00059432
Gmin = 1.50232e-009
vernier = 0.000792427
vernier = 0.00059432
vernier = 0.00044574
vernier = 0.00059432
Gmin = 1.50104e-009
vernier = 0.000792426
vernier = 0.00059432
vernier = 0.00044574
Gmin = 1.49959e-009
vernier = 0.00059432
vernier = 0.000792426
Gmin = 1.49746e-009
vernier = 0.000594319
vernier = 0.00044574
vernier = 0.000594319
Gmin = 1.49625e-009
vernier = 0.000792425
vernier = 0.000594319
vernier = 0.000445739
Gmin = 1.49492e-009
vernier = 0.000594319
vernier = 0.000792425
vernier = 0.000594319
vernier = 0.000445739
Gmin = 1.49342e-009
vernier = 0.000594319
Gmin = 1.49148e-009
vernier = 0.000792425
vernier = 0.000594318
vernier = 0.000445739
vernier = 0.000594318
Gmin = 1.49021e-009
vernier = 0.000792424
vernier = 0.000594318
vernier = 0.000445739
Gmin = 1.48877e-009
vernier = 0.000594318
vernier = 0.000792424
Gmin = 1.48665e-009
vernier = 0.000594318
vernier = 0.000445738
vernier = 0.000594318
Gmin = 1.48546e-009
vernier = 0.000792423
vernier = 0.000594318
vernier = 0.000445738
Gmin = 1.48413e-009
vernier = 0.000594317
vernier = 0.000792423
vernier = 0.000594317
vernier = 0.000445738
Gmin = 1.48265e-009
vernier = 0.000594317
Gmin = 1.48072e-009
vernier = 0.000792423
vernier = 0.000594317
vernier = 0.000445738
vernier = 0.000594317
Gmin = 1.47946e-009
vernier = 0.000792422
vernier = 0.000594317
vernier = 0.000445738
Gmin = 1.47803e-009
vernier = 0.000594317
vernier = 0.000792422
Gmin = 1.47592e-009
vernier = 0.000594316
vernier = 0.000445737
vernier = 0.000594316
Gmin = 1.47474e-009
vernier = 0.000792421
vernier = 0.000594316
vernier = 0.000445737
Gmin = 1.47342e-009
vernier = 0.000594316
vernier = 0.000792421
vernier = 0.000594316
vernier = 0.000445737
Gmin = 1.47195e-009
vernier = 0.000594316
Gmin = 1.47003e-009
vernier = 0.000792421
vernier = 0.000594316
vernier = 0.000445737
vernier = 0.000594315
Gmin = 1.46878e-009
vernier = 0.00079242
vernier = 0.000594315
vernier = 0.000445736
Gmin = 1.46736e-009
vernier = 0.000594315
vernier = 0.00079242
Gmin = 1.46527e-009
vernier = 0.000594315
vernier = 0.000445736
vernier = 0.000594315
Gmin = 1.46409e-009
vernier = 0.00079242
vernier = 0.000594315
vernier = 0.000445736
Gmin = 1.46279e-009
vernier = 0.000594314
vernier = 0.000792419
vernier = 0.000594314
vernier = 0.000445736
Gmin = 1.46132e-009
vernier = 0.000594314
Gmin = 1.45943e-009
vernier = 0.000792419
vernier = 0.000594314
vernier = 0.000445736
vernier = 0.000594314
Gmin = 1.45818e-009
vernier = 0.000792418
vernier = 0.000594314
vernier = 0.000445735
Gmin = 1.45677e-009
vernier = 0.000594314
vernier = 0.000792418
Gmin = 1.4547e-009
vernier = 0.000594313
vernier = 0.000445735
vernier = 0.000594313
Gmin = 1.45353e-009
vernier = 0.000792418
vernier = 0.000594313
vernier = 0.000445735
Gmin = 1.45223e-009
vernier = 0.000594313
vernier = 0.000792417
vernier = 0.000594313
Gmin = 1.45056e-009
vernier = 0.000792417
vernier = 0.000594313
vernier = 0.000445735
Gmin = 1.44922e-009
vernier = 0.000594313
vernier = 0.000792417
vernier = 0.000594312
Gmin = 1.4476e-009
vernier = 0.000445734
vernier = 0.000594312
vernier = 0.000445734
Gmin = 1.44647e-009
vernier = 0.000594312
vernier = 0.000445734
Gmin = 1.44518e-009
vernier = 0.000594312
vernier = 0.000445734
vernier = 0.000594312
vernier = 0.000445734
Gmin = 1.44422e-009
vernier = 0.000594312
vernier = 0.000445734
Gmin = 1.44293e-009
vernier = 0.000594312
vernier = 0.000445734
vernier = 0.000594311
vernier = 0.000445734
Gmin = 1.44197e-009
vernier = 0.000594311
vernier = 0.000445733
Gmin = 1.44068e-009
vernier = 0.000594311
vernier = 0.000445733
vernier = 0.000594311
Gmin = 1.43935e-009
vernier = 0.000445733
vernier = 0.000594311
vernier = 0.000445733
Gmin = 1.43844e-009
vernier = 0.000594311
vernier = 0.000445733
Gmin = 1.43716e-009
vernier = 0.00059431
vernier = 0.000445733
vernier = 0.00059431
vernier = 0.000445733
Gmin = 1.4362e-009
vernier = 0.00059431
vernier = 0.000445733
Gmin = 1.43492e-009
vernier = 0.00059431
vernier = 0.000445733
vernier = 0.00059431
vernier = 0.000445732
Gmin = 1.43396e-009
vernier = 0.00059431
vernier = 0.000445732
Gmin = 1.43268e-009
vernier = 0.00059431
vernier = 0.000445732
vernier = 0.000594309
Gmin = 1.43135e-009
vernier = 0.000445732
vernier = 0.000594309
vernier = 0.000445732
Gmin = 1.43045e-009
vernier = 0.000594309
vernier = 0.000445732
Gmin = 1.42917e-009
vernier = 0.000594309
vernier = 0.000445732
vernier = 0.000594309
vernier = 0.000445732
Gmin = 1.42822e-009
vernier = 0.000594309
vernier = 0.000445732
Gmin = 1.42694e-009
vernier = 0.000594309
vernier = 0.000445731
vernier = 0.000594308
vernier = 0.000445731
Gmin = 1.42599e-009
vernier = 0.000594308
vernier = 0.000445731
Gmin = 1.42472e-009
vernier = 0.000594308
vernier = 0.000445731
vernier = 0.000594308
Gmin = 1.4234e-009
vernier = 0.000445731
vernier = 0.000594308
vernier = 0.000445731
Gmin = 1.4225e-009
vernier = 0.000594308
vernier = 0.000445731
Gmin = 1.42123e-009
vernier = 0.000594308
vernier = 0.000445731
vernier = 0.000594307
vernier = 0.000445731
Gmin = 1.42028e-009
vernier = 0.000594307
vernier = 0.00044573
Gmin = 1.41902e-009
vernier = 0.000594307
vernier = 0.00044573
vernier = 0.000594307
vernier = 0.00044573
Gmin = 1.41807e-009
vernier = 0.000594307
vernier = 0.00044573
Gmin = 1.4168e-009
vernier = 0.000594307
vernier = 0.00044573
vernier = 0.000594306
Gmin = 1.41549e-009
vernier = 0.00044573
vernier = 0.000594306
vernier = 0.00044573
Gmin = 1.4146e-009
vernier = 0.000594306
vernier = 0.00044573
Gmin = 1.41333e-009
vernier = 0.000594306
vernier = 0.00044573
vernier = 0.000594306
vernier = 0.000445729
Gmin = 1.41239e-009
vernier = 0.000594306
vernier = 0.000445729
Gmin = 1.41113e-009
vernier = 0.000594306
vernier = 0.000445729
vernier = 0.000594305
vernier = 0.000445729
Gmin = 1.41019e-009
vernier = 0.000594305
vernier = 0.000445729
Gmin = 1.40893e-009
vernier = 0.000594305
vernier = 0.000445729
vernier = 0.000594305
Gmin = 1.40762e-009
vernier = 0.000445729
vernier = 0.000594305
vernier = 0.000445729
Gmin = 1.40674e-009
vernier = 0.000594305
vernier = 0.000445729
Gmin = 1.40548e-009
vernier = 0.000594305
vernier = 0.000445728
vernier = 0.000594304
vernier = 0.000445728
Gmin = 1.40454e-009
vernier = 0.000594304
vernier = 0.000445728
Gmin = 1.40329e-009
vernier = 0.000594304
vernier = 0.000445728
vernier = 0.000594304
vernier = 0.000445728
Gmin = 1.40235e-009
vernier = 0.000594304
vernier = 0.000445728
Gmin = 1.4011e-009
vernier = 0.000594304
vernier = 0.000445728
vernier = 0.000594303
Gmin = 1.3998e-009
vernier = 0.000445728
vernier = 0.000594303
vernier = 0.000445728
Gmin = 1.39892e-009
vernier = 0.000594303
vernier = 0.000445727
Gmin = 1.39767e-009
vernier = 0.000594303
vernier = 0.000445727
vernier = 0.000594303
vernier = 0.000445727
Gmin = 1.39674e-009
vernier = 0.000594303
vernier = 0.000445727
Gmin = 1.3955e-009
vernier = 0.000594303
vernier = 0.000445727
vernier = 0.000594302
vernier = 0.000445727
Gmin = 1.39456e-009
vernier = 0.000594302
vernier = 0.000445727
Gmin = 1.39332e-009
vernier = 0.000594302
vernier = 0.000445727
vernier = 0.000594302
Gmin = 1.39203e-009
vernier = 0.000445727
vernier = 0.000594302
vernier = 0.000445726
Gmin = 1.39115e-009
vernier = 0.000594302
vernier = 0.000445726
Gmin = 1.38991e-009
vernier = 0.000594302
vernier = 0.000445726
vernier = 0.000594301
vernier = 0.000445726
Gmin = 1.38898e-009
vernier = 0.000594301
vernier = 0.000445726
Gmin = 1.38774e-009
vernier = 0.000594301
vernier = 0.000445726
vernier = 0.000594301
vernier = 0.000445726
Gmin = 1.38681e-009
vernier = 0.000594301
vernier = 0.000445726
Gmin = 1.38558e-009
vernier = 0.000594301
vernier = 0.000445726
vernier = 0.000594301
Gmin = 1.38429e-009
vernier = 0.000445725
vernier = 0.0005943
vernier = 0.000445725
Gmin = 1.38342e-009
vernier = 0.0005943
vernier = 0.000445725
Gmin = 0
Gmin stepping failed

Starting source stepping with srcstepmethod=0
Source Step = 3.0303%
Source Step = 33.3333%
Source Step = 63.6364%
Source Step = 66.5246%
Source Step = 66.9981%
Source Step = 67.4716%
vernier = 0.00390625
Source Step = 67.5426%
Source Step = 67.661%
Source Step = 67.7794%
Source Step = 67.8977%
Source Step = 68.0161%
vernier = 0.00585938
Source Step = 68.0634%
Source Step = 68.1078%
Source Step = 68.1522%
Source Step = 68.1966%
Source Step = 68.241%
vernier = 0.00219727
Source Step = 68.3009%
Source Step = 68.3675%
Source Step = 68.4341%
Source Step = 68.5007%
Source Step = 68.5673%
Source Step = 68.6338%
vernier = 0.0032959
Source Step = 68.7271%
Source Step = 68.8269%
Source Step = 68.9268%
Source Step = 69.0267%
Source Step = 69.1266%
vernier = 0.00494385
Source Step = 69.2614%
Source Step = 69.4112%
Source Step = 69.561%
Source Step = 69.7108%
Source Step = 69.8607%
vernier = 0.00741577
Source Step = 70.0554%
Source Step = 70.2801%
Source Step = 70.5049%
Source Step = 70.7296%
Source Step = 70.9543%
vernier = 0.0111237
Source Step = 71.2352%
Source Step = 71.5723%
Source Step = 71.9094%
Source Step = 72.2464%
Source Step = 72.4487%
Source Step = 72.533%
Source Step = 72.6172%
Source Step = 72.7015%
Source Step = 72.7858%
vernier = 0.00417137
Source Step = 72.8511%
Source Step = 72.8827%
Source Step = 72.9143%
Source Step = 72.9459%
Source Step = 72.9775%
vernier = 0.00156426
Source Step = 73.0107%
Source Step = 73.0581%
Source Step = 73.1055%
Source Step = 73.1529%
Source Step = 73.2003%
Source Step = 73.2477%
vernier = 0.0023464
Source Step = 73.3188%
Source Step = 73.3899%
Source Step = 73.461%
Source Step = 73.5321%
Source Step = 73.6032%
vernier = 0.00351959
Source Step = 73.7063%
Source Step = 73.8129%
Source Step = 73.9196%
Source Step = 74.0262%
Source Step = 74.1329%
vernier = 0.00527939
Source Step = 74.2822%
Source Step = 74.4422%
Source Step = 74.6022%
Source Step = 74.7622%
Source Step = 74.9221%
vernier = 0.00791909
Source Step = 75.1381%
Source Step = 75.3781%
Source Step = 75.6181%
Source Step = 75.858%
Source Step = 76.098%
vernier = 0.0118786
Source Step = 76.41%
Source Step = 76.7699%
Source Step = 77.1299%
Source Step = 77.4898%
Source Step = 77.8498%
vernier = 0.0178179
Source Step = 78.2998%
Source Step = 78.8397%
Source Step = 79.3796%
Source Step = 79.9196%
Source Step = 80.4595%
vernier = 0.0267269
Source Step = 81.1074%
Source Step = 81.9173%
Source Step = 82.7272%
Source Step = 83.5372%
Source Step = 84.3471%
vernier = 0.0400904
Source Step = 85.2785%
Source Step = 86.4933%
Source Step = 87.7082%
Source Step = 88.923%
Source Step = 90.1379%
vernier = 0.0601356
Source Step = 91.4742%
Source Step = 93.2965%
Source Step = 95.1188%
Source Step = 95.6769%
Source Step = 95.7054%
Source Step = 95.7338%
Source Step = 95.7623%
Source Step = 95.7908%
Source Step = 95.8193%
vernier = 0.00140943
Source Step = 95.8577%
Source Step = 95.9004%
Source Step = 95.9431%
Source Step = 95.9858%
Source Step = 96.0285%
vernier = 0.00211414
Source Step = 96.0841%
Source Step = 96.1481%
Source Step = 96.2122%
Source Step = 96.2763%
Source Step = 96.3403%
vernier = 0.00317121
Source Step = 96.4204%
Source Step = 96.5165%
Source Step = 96.6126%
Source Step = 96.7087%
Source Step = 96.8048%
vernier = 0.00475682
Source Step = 96.9201%
Source Step = 97.0643%
Source Step = 97.2084%
Source Step = 97.3525%
Source Step = 97.4967%
vernier = 0.00713523
Source Step = 97.6625%
Source Step = 97.8787%
Source Step = 98.0949%
Source Step = 98.3111%
Source Step = 98.5273%
vernier = 0.0107028
Source Step = 98.7652%
Source Step = 99.0895%
Source Step = 99.4138%
Source Step = 99.7382%
Source stepping succeeded in finding the operating point.


Date: Fri Sep 02 22:18:50 2022
Total elapsed time: 8.736 seconds.

tnom = 27
temp = 27
method = modified trap
totiter = 145448
traniter = 3054
tranpoints = 1042
accept = 1042
rejected = 0
matrix size = 49
fillins = 167
solver = Normal
Thread vector: 11.9/5.2[3] 2.7/2.0[2] 2.1/1.7[3] 0.1/0.9[1]  2592/500
Matrix Compiler1: 14.53 KB object code size  2.2/1.1/[0.5]
Matrix Compiler2: 7.22 KB object code size  0.5/0.6/[0.3]

